!-Generator IDFEditor 1.34
!-Option OriginalOrderTop UseSpecialFormat
!-Modified by Parser-Compatible Modification System
!-Modified Date: 2025-06-25 17:33:52
!-Session ID: 20250625_173346


Version,
    22.2;  !- Version Identifier, Version Identifier

SimulationControl,
    Yes,  !- Do Zone Sizing Calculation, Do Zone Sizing Calculation
    Yes,  !- Do System Sizing Calculation, Do System Sizing Calculation
    Yes,  !- Do Plant Sizing Calculation, Do Plant Sizing Calculation
    No,  !- Run Simulation for Sizing Periods, Run Simulation for Sizing Periods
    Yes,  !- Run Simulation for Weather File Run Periods, Run Simulation for Weather File Run Periods
    No,  !- Do HVAC Sizing Simulation for Sizing Periods, Do HVAC Sizing Simulation for Sizing Periods
    ;  !- Maximum Number of HVAC Sizing Simulation Passes, Maximum Number of HVAC Sizing Simulation Passes

BUILDING,
    Sample_Building_0,  !- Name, Name
    0,  !- North Axis, North Axis
    Suburbs,  !- Terrain, Terrain
    0.04,  !- Loads Convergence Tolerance Value, Loads Convergence Tolerance Value
    0.4,  !- Temperature Convergence Tolerance Value, Temperature Convergence Tolerance Value
    FullExterior,  !- Solar Distribution, Solar Distribution
    25,  !- Maximum Number of Warmup Days, Maximum Number of Warmup Days
    1;  !- Minimum Number of Warmup Days, Minimum Number of Warmup Days

Timestep,
    6;  !- Number of Timesteps per Hour, Number of Timesteps per Hour

Site:Location,
    Amsterdam_Netherlands,  !- Name, Name
    52.37,  !- Latitude, Latitude
    4.89,  !- Longitude, Longitude
    1,  !- Time Zone, Time Zone
    0;  !- Elevation, Elevation

SITE:GROUNDTEMPERATURE:BUILDINGSURFACE,
    4.1401669713092515,  !- January Ground Temperature, January Ground Temperature
    5.038256305685368,  !- February Ground Temperature, February Ground Temperature
    6.050798809589606,  !- March Ground Temperature, March Ground Temperature
    9.058767018223424,  !- April Ground Temperature, April Ground Temperature
    15.973682601179393,  !- May Ground Temperature, May Ground Temperature
    17.67743966027428,  !- June Ground Temperature, June Ground Temperature
    20.28509930826106,  !- July Ground Temperature, July Ground Temperature
    19.1746178381102,  !- August Ground Temperature, August Ground Temperature
    16.34458381222191,  !- September Ground Temperature, September Ground Temperature
    10.560334611727509,  !- October Ground Temperature, October Ground Temperature
    8.156654097262178,  !- November Ground Temperature, November Ground Temperature
    5.511450749058092;  !- December Ground Temperature, December Ground Temperature

SizingPeriod:DesignDay,
    Netherlands Ann Htg 99.6% Condns DB,  !- Name, Name
    1,  !- Month, Month
    21,  !- Day of Month, Day of Month
    WinterDesignDay,  !- Day Type, Day Type
    -5,  !- Maximum Dry-Bulb Temperature, Maximum DryBulb Temperature
    0,  !- Daily Dry-Bulb Temperature Range, Daily DryBulb Temperature Range
    ,  !- Dry-Bulb Temperature Range Modifier Type, DryBulb Temperature Range Modifier Type
    ,  !- Dry-Bulb Temperature Range Modifier Day Schedule Name, DryBulb Temperature Range Modifier Day Schedule Name
    Wetbulb,  !- Humidity Condition Type, Humidity Condition Type
    -5,  !- Wetbulb or DewPoint at Maximum Dry-Bulb, Wetbulb or DewPoint at Maximum DryBulb
    ,  !- Humidity Condition Day Schedule Name, Humidity Condition Day Schedule Name
    ,  !- Humidity Ratio at Maximum Dry-Bulb, Humidity Ratio at Maximum DryBulb
    ,  !- Enthalpy at Maximum Dry-Bulb, Enthalpy at Maximum DryBulb
    ,  !- Daily Wet-Bulb Temperature Range, Daily WetBulb Temperature Range
    102000,  !- Barometric Pressure, Barometric Pressure
    4,  !- Wind Speed, Wind Speed
    270,  !- Wind Direction, Wind Direction
    No,  !- Rain Indicator, Rain Indicator
    No,  !- Snow Indicator, Snow Indicator
    No,  !- Daylight Saving Time Indicator, Daylight Saving Time Indicator
    ASHRAEClearSky,  !- Solar Model Indicator, Solar Model Indicator
    ,  !- Beam Solar Day Schedule Name, Beam Solar Day Schedule Name
    ,  !- Diffuse Solar Day Schedule Name, Diffuse Solar Day Schedule Name
    ,  !- ASHRAE Clear Sky Optical Depth for Beam Irradiance (taub), ASHRAE Clear Sky Optical Depth for Beam Irradiance taub
    ,  !- ASHRAE Clear Sky Optical Depth for Diffuse Irradiance (taud), ASHRAE Clear Sky Optical Depth for Diffuse Irradiance taud
    0;  !- Sky Clearness, Sky Clearness

SizingPeriod:DesignDay,
    Netherlands Ann Clg 1% Condns DB=>MWB,  !- Name, Name
    7,  !- Month, Month
    21,  !- Day of Month, Day of Month
    SummerDesignDay,  !- Day Type, Day Type
    28,  !- Maximum Dry-Bulb Temperature, Maximum DryBulb Temperature
    10,  !- Daily Dry-Bulb Temperature Range, Daily DryBulb Temperature Range
    ,  !- Dry-Bulb Temperature Range Modifier Type, DryBulb Temperature Range Modifier Type
    ,  !- Dry-Bulb Temperature Range Modifier Day Schedule Name, DryBulb Temperature Range Modifier Day Schedule Name
    Wetbulb,  !- Humidity Condition Type, Humidity Condition Type
    17,  !- Wetbulb or DewPoint at Maximum Dry-Bulb, Wetbulb or DewPoint at Maximum DryBulb
    ,  !- Humidity Condition Day Schedule Name, Humidity Condition Day Schedule Name
    ,  !- Humidity Ratio at Maximum Dry-Bulb, Humidity Ratio at Maximum DryBulb
    ,  !- Enthalpy at Maximum Dry-Bulb, Enthalpy at Maximum DryBulb
    ,  !- Daily Wet-Bulb Temperature Range, Daily WetBulb Temperature Range
    102000,  !- Barometric Pressure, Barometric Pressure
    3.5,  !- Wind Speed, Wind Speed
    90,  !- Wind Direction, Wind Direction
    No,  !- Rain Indicator, Rain Indicator
    No,  !- Snow Indicator, Snow Indicator
    No,  !- Daylight Saving Time Indicator, Daylight Saving Time Indicator
    ASHRAEClearSky,  !- Solar Model Indicator, Solar Model Indicator
    ,  !- Beam Solar Day Schedule Name, Beam Solar Day Schedule Name
    ,  !- Diffuse Solar Day Schedule Name, Diffuse Solar Day Schedule Name
    ,  !- ASHRAE Clear Sky Optical Depth for Beam Irradiance (taub), ASHRAE Clear Sky Optical Depth for Beam Irradiance taub
    ,  !- ASHRAE Clear Sky Optical Depth for Diffuse Irradiance (taud), ASHRAE Clear Sky Optical Depth for Diffuse Irradiance taud
    1;  !- Sky Clearness, Sky Clearness

RunPeriod,
    Run Period 1,  !- Name, Name
    1,  !- Begin Month, Begin Month
    1,  !- Begin Day of Month, Begin Day of Month
    ,  !- Begin Year, Begin Year
    12,  !- End Month, End Month
    31,  !- End Day of Month, End Day of Month
    ,  !- End Year, End Year
    Tuesday,  !- Day of Week for Start Day, Day of Week for Start Day
    Yes,  !- Use Weather File Holidays and Special Days, Use Weather File Holidays and Special Days
    Yes,  !- Use Weather File Daylight Saving Period, Use Weather File Daylight Saving Period
    No,  !- Apply Weekend Holiday Rule, Apply Weekend Holiday Rule
    Yes,  !- Use Weather File Rain Indicators, Use Weather File Rain Indicators
    Yes;  !- Use Weather File Snow Indicators, Use Weather File Snow Indicators

MATERIAL,
    Concrete_200mm,  !- Name, Name
    MediumRough,  !- Roughness, Roughness
    0.2575607354616413,  !- Thickness, Thickness
    0.057201364112560917,  !- Conductivity, Conductivity
    2300.535528810336,  !- Density, Density
    852.6535969683864,  !- Specific Heat, Specific Heat
    0.9,  !- Thermal Absorptance, Thermal Absorptance
    0.7,  !- Solar Absorptance, Solar Absorptance
    0.7;  !- Visible Absorptance, Visible Absorptance

MATERIAL:NOMASS,
    Roof_R2.5,  !- Name, Name
    MediumRough,  !- Roughness, Roughness
    4.86039013007487,  !- Thermal Resistance, Thermal Resistance
    0.9026979198800315,  !- Thermal Absorptance, Thermal Absorptance
    0.700629180728445,  !- Solar Absorptance, Solar Absorptance
    0.6960861687085697;  !- Visible Absorptance, Visible Absorptance

MATERIAL:NOMASS,
    InternalFloor_Generic_R1.0,  !- Name, Name
    MediumSmooth,  !- Roughness, Roughness
    1.912658958838514,  !- Thermal Resistance, Thermal Resistance
    0.9055697482202009,  !- Thermal Absorptance, Thermal Absorptance
    0.6930909826354928,  !- Solar Absorptance, Solar Absorptance
    0.7042814695256593;  !- Visible Absorptance, Visible Absorptance

MATERIAL:NOMASS,
    InteriorWall_Generic_R0.5,  !- Name, Name
    MediumSmooth,  !- Roughness, Roughness
    0.7759976589360675,  !- Thermal Resistance, Thermal Resistance
    0.8971245092973239,  !- Thermal Absorptance, Thermal Absorptance
    4.965548e-01,  !- Solar Absorptance, Solar Absorptance
    0.5045721307220679;  !- Visible Absorptance, Visible Absorptance

MATERIAL:NOMASS,
    GroundFloor_R2.5,  !- Name, Name
    MediumRough,  !- Roughness, Roughness
    0.5966161377387218,  !- Thermal Resistance, Thermal Resistance
    0.8926694251808427,  !- Thermal Absorptance, Thermal Absorptance
    0.6943540292756685,  !- Solar Absorptance, Solar Absorptance
    0.7048649211288645;  !- Visible Absorptance, Visible Absorptance

MATERIAL:NOMASS,
    Door_U3.4,  !- Name, Name
    MediumRough,  !- Roughness, Roughness
    0.5575006864730568,  !- Thermal Resistance, Thermal Resistance
    0.9041351721604888,  !- Thermal Absorptance, Thermal Absorptance
    0.7005071932803658,  !- Solar Absorptance, Solar Absorptance
    0.7066236206957112;  !- Visible Absorptance, Visible Absorptance

WINDOWMATERIAL:SIMPLEGLAZINGSYSTEM,
    Window_U2.9,  !- Name, Name
    2.9,  !- U-Factor, UFactor
    0.7014521644391364,  !- Solar Heat Gain Coefficient, Solar Heat Gain Coefficient
    0.7;  !- Visible Transmittance, Visible Transmittance

CONSTRUCTION,
    CEILING1C,  !- Name, Name
    Roof_R2.5;  !- Outside Layer, Outside Layer

CONSTRUCTION,
    Ext_Walls1C,  !- Name, Name
    Concrete_200mm;  !- Outside Layer, Outside Layer

CONSTRUCTION,
    Int_Walls1C,  !- Name, Name
    InteriorWall_Generic_R0.5;  !- Outside Layer, Outside Layer

CONSTRUCTION,
    Roof1C,  !- Name, Name
    Roof_R2.5;  !- Outside Layer, Outside Layer

CONSTRUCTION,
    GroundFloor1C,  !- Name, Name
    GroundFloor_R2.5;  !- Outside Layer, Outside Layer

CONSTRUCTION,
    IntFloor1C,  !- Name, Name
    InternalFloor_Generic_R1.0;  !- Outside Layer, Outside Layer

CONSTRUCTION,
    Window1C,  !- Name, Name
    Window_U2.9;  !- Outside Layer, Outside Layer

CONSTRUCTION,
    ground_floor_Construction,  !- Name, Name
    GroundFloor_R2.5;  !- Outside Layer, Outside Layer

CONSTRUCTION,
    exterior_wall_Construction,  !- Name, Name
    Concrete_200mm;  !- Outside Layer, Outside Layer

CONSTRUCTION,
    flat_roof_Construction,  !- Name, Name
    Roof_R2.5;  !- Outside Layer, Outside Layer

CONSTRUCTION,
    inter_floor_Construction,  !- Name, Name
    InternalFloor_Generic_R1.0;  !- Outside Layer, Outside Layer

CONSTRUCTION,
    interior_wall_Construction,  !- Name, Name
    InteriorWall_Generic_R0.5;  !- Outside Layer, Outside Layer

CONSTRUCTION,
    windows_Construction,  !- Name, Name
    GroundFloor_R2.5;  !- Outside Layer, Outside Layer

CONSTRUCTION,
    windows_WindowConst,  !- Name, Name
    Window_U2.9;  !- Outside Layer, Outside Layer

CONSTRUCTION,
    doors_Construction,  !- Name, Name
    Door_U3.4;  !- Outside Layer, Outside Layer

GlobalGeometryRules,
    UpperLeftCorner,  !- Starting Vertex Position, Starting Vertex Position
    CounterClockWise,  !- Vertex Entry Direction, Vertex Entry Direction
    Relative;  !- Coordinate System, Coordinate System

ZONE,
    Zone1_FrontPerimeter,  !- Name, Name
    0,  !- Direction of Relative North, Direction of Relative North
    0,  !- X Origin, X Origin
    0,  !- Y Origin, Y Origin
    0,  !- Z Origin, Z Origin
    1,  !- Type, Type
    1,  !- Multiplier, Multiplier
    autocalculate,  !- Ceiling Height, Ceiling Height
    autocalculate,  !- Volume, Volume
    autocalculate,  !- Floor Area, Floor Area
    ,  !- Zone Inside Convection Algorithm, Zone Inside Convection Algorithm
    ,  !- Zone Outside Convection Algorithm, Zone Outside Convection Algorithm
    Yes;  !- Part of Total Floor Area, Part of Total Floor Area

ZONE,
    Zone1_RightPerimeter,  !- Name, Name
    0,  !- Direction of Relative North, Direction of Relative North
    0,  !- X Origin, X Origin
    0,  !- Y Origin, Y Origin
    0,  !- Z Origin, Z Origin
    1,  !- Type, Type
    1,  !- Multiplier, Multiplier
    autocalculate,  !- Ceiling Height, Ceiling Height
    autocalculate,  !- Volume, Volume
    autocalculate,  !- Floor Area, Floor Area
    ,  !- Zone Inside Convection Algorithm, Zone Inside Convection Algorithm
    ,  !- Zone Outside Convection Algorithm, Zone Outside Convection Algorithm
    Yes;  !- Part of Total Floor Area, Part of Total Floor Area

ZONE,
    Zone1_RearPerimeter,  !- Name, Name
    0,  !- Direction of Relative North, Direction of Relative North
    0,  !- X Origin, X Origin
    0,  !- Y Origin, Y Origin
    0,  !- Z Origin, Z Origin
    1,  !- Type, Type
    1,  !- Multiplier, Multiplier
    autocalculate,  !- Ceiling Height, Ceiling Height
    autocalculate,  !- Volume, Volume
    autocalculate,  !- Floor Area, Floor Area
    ,  !- Zone Inside Convection Algorithm, Zone Inside Convection Algorithm
    ,  !- Zone Outside Convection Algorithm, Zone Outside Convection Algorithm
    Yes;  !- Part of Total Floor Area, Part of Total Floor Area

ZONE,
    Zone1_LeftPerimeter,  !- Name, Name
    0,  !- Direction of Relative North, Direction of Relative North
    0,  !- X Origin, X Origin
    0,  !- Y Origin, Y Origin
    0,  !- Z Origin, Z Origin
    1,  !- Type, Type
    1,  !- Multiplier, Multiplier
    autocalculate,  !- Ceiling Height, Ceiling Height
    autocalculate,  !- Volume, Volume
    autocalculate,  !- Floor Area, Floor Area
    ,  !- Zone Inside Convection Algorithm, Zone Inside Convection Algorithm
    ,  !- Zone Outside Convection Algorithm, Zone Outside Convection Algorithm
    Yes;  !- Part of Total Floor Area, Part of Total Floor Area

ZONE,
    Zone1_Core,  !- Name, Name
    0,  !- Direction of Relative North, Direction of Relative North
    0,  !- X Origin, X Origin
    0,  !- Y Origin, Y Origin
    0,  !- Z Origin, Z Origin
    1,  !- Type, Type
    1,  !- Multiplier, Multiplier
    autocalculate,  !- Ceiling Height, Ceiling Height
    autocalculate,  !- Volume, Volume
    autocalculate,  !- Floor Area, Floor Area
    ,  !- Zone Inside Convection Algorithm, Zone Inside Convection Algorithm
    ,  !- Zone Outside Convection Algorithm, Zone Outside Convection Algorithm
    Yes;  !- Part of Total Floor Area, Part of Total Floor Area

ZONE,
    Zone2_FrontPerimeter,  !- Name, Name
    0,  !- Direction of Relative North, Direction of Relative North
    0,  !- X Origin, X Origin
    0,  !- Y Origin, Y Origin
    0,  !- Z Origin, Z Origin
    1,  !- Type, Type
    1,  !- Multiplier, Multiplier
    autocalculate,  !- Ceiling Height, Ceiling Height
    autocalculate,  !- Volume, Volume
    autocalculate,  !- Floor Area, Floor Area
    ,  !- Zone Inside Convection Algorithm, Zone Inside Convection Algorithm
    ,  !- Zone Outside Convection Algorithm, Zone Outside Convection Algorithm
    Yes;  !- Part of Total Floor Area, Part of Total Floor Area

ZONE,
    Zone2_RightPerimeter,  !- Name, Name
    0,  !- Direction of Relative North, Direction of Relative North
    0,  !- X Origin, X Origin
    0,  !- Y Origin, Y Origin
    0,  !- Z Origin, Z Origin
    1,  !- Type, Type
    1,  !- Multiplier, Multiplier
    autocalculate,  !- Ceiling Height, Ceiling Height
    autocalculate,  !- Volume, Volume
    autocalculate,  !- Floor Area, Floor Area
    ,  !- Zone Inside Convection Algorithm, Zone Inside Convection Algorithm
    ,  !- Zone Outside Convection Algorithm, Zone Outside Convection Algorithm
    Yes;  !- Part of Total Floor Area, Part of Total Floor Area

ZONE,
    Zone2_RearPerimeter,  !- Name, Name
    0,  !- Direction of Relative North, Direction of Relative North
    0,  !- X Origin, X Origin
    0,  !- Y Origin, Y Origin
    0,  !- Z Origin, Z Origin
    1,  !- Type, Type
    1,  !- Multiplier, Multiplier
    autocalculate,  !- Ceiling Height, Ceiling Height
    autocalculate,  !- Volume, Volume
    autocalculate,  !- Floor Area, Floor Area
    ,  !- Zone Inside Convection Algorithm, Zone Inside Convection Algorithm
    ,  !- Zone Outside Convection Algorithm, Zone Outside Convection Algorithm
    Yes;  !- Part of Total Floor Area, Part of Total Floor Area

ZONE,
    Zone2_LeftPerimeter,  !- Name, Name
    0,  !- Direction of Relative North, Direction of Relative North
    0,  !- X Origin, X Origin
    0,  !- Y Origin, Y Origin
    0,  !- Z Origin, Z Origin
    1,  !- Type, Type
    1,  !- Multiplier, Multiplier
    autocalculate,  !- Ceiling Height, Ceiling Height
    autocalculate,  !- Volume, Volume
    autocalculate,  !- Floor Area, Floor Area
    ,  !- Zone Inside Convection Algorithm, Zone Inside Convection Algorithm
    ,  !- Zone Outside Convection Algorithm, Zone Outside Convection Algorithm
    Yes;  !- Part of Total Floor Area, Part of Total Floor Area

ZONE,
    Zone2_Core,  !- Name, Name
    0,  !- Direction of Relative North, Direction of Relative North
    0,  !- X Origin, X Origin
    0,  !- Y Origin, Y Origin
    0,  !- Z Origin, Z Origin
    1,  !- Type, Type
    1,  !- Multiplier, Multiplier
    autocalculate,  !- Ceiling Height, Ceiling Height
    autocalculate,  !- Volume, Volume
    autocalculate,  !- Floor Area, Floor Area
    ,  !- Zone Inside Convection Algorithm, Zone Inside Convection Algorithm
    ,  !- Zone Outside Convection Algorithm, Zone Outside Convection Algorithm
    Yes;  !- Part of Total Floor Area, Part of Total Floor Area

BUILDINGSURFACE:DETAILED,
    Zone1_FrontPerimeter_Floor,  !- Name, Name
    Floor,  !- Surface Type, Surface Type
    ground_floor_Construction,  !- Construction Name, Construction Name
    Zone1_FrontPerimeter,  !- Zone Name, Zone Name
    ,  !- Space Name, Space Name
    Ground,  !- Outside Boundary Condition, Outside Boundary Condition
    ,  !- Outside Boundary Condition Object, Outside Boundary Condition Object
    NoSun,  !- Sun Exposure, Sun Exposure
    NoWind,  !- Wind Exposure, Wind Exposure
    autocalculate,  !- View Factor to Ground, View Factor to Ground
    autocalculate,  !- Number of Vertices, Number of Vertices
    3.680286600771058,  !- Field_12, Vertex 1 Xcoordinate
    2.319713399228942,  !- Field_13, Vertex 1 Ycoordinate
    0,  !- Field_14, Vertex 1 Zcoordinate
    6,  !- Field_15, Vertex 2 Xcoordinate
    0,  !- Field_16, Vertex 2 Ycoordinate
    0,  !- Field_17, Vertex 2 Zcoordinate
    0,  !- Field_18, Vertex 3 Xcoordinate
    0,  !- Field_19, Vertex 3 Ycoordinate
    0,  !- Field_20, Vertex 3 Zcoordinate
    2.319713399228942,  !- Field_21, Vertex 4 Xcoordinate
    2.319713399228942,  !- Field_22, Vertex 4 Ycoordinate
    0;  !- Field_23, Vertex 4 Zcoordinate

BUILDINGSURFACE:DETAILED,
    Zone1_FrontPerimeter_Wall_0,  !- Name, Name
    Wall,  !- Surface Type, Surface Type
    exterior_wall_Construction,  !- Construction Name, Construction Name
    Zone1_FrontPerimeter,  !- Zone Name, Zone Name
    ,  !- Space Name, Space Name
    Outdoors,  !- Outside Boundary Condition, Outside Boundary Condition
    ,  !- Outside Boundary Condition Object, Outside Boundary Condition Object
    SunExposed,  !- Sun Exposure, Sun Exposure
    WindExposed,  !- Wind Exposure, Wind Exposure
    autocalculate,  !- View Factor to Ground, View Factor to Ground
    autocalculate,  !- Number of Vertices, Number of Vertices
    0,  !- Field_12, Vertex 1 Xcoordinate
    0,  !- Field_13, Vertex 1 Ycoordinate
    3,  !- Field_14, Vertex 1 Zcoordinate
    0,  !- Field_15, Vertex 2 Xcoordinate
    0,  !- Field_16, Vertex 2 Ycoordinate
    0,  !- Field_17, Vertex 2 Zcoordinate
    6,  !- Field_18, Vertex 3 Xcoordinate
    0,  !- Field_19, Vertex 3 Ycoordinate
    0,  !- Field_20, Vertex 3 Zcoordinate
    6,  !- Field_21, Vertex 4 Xcoordinate
    0,  !- Field_22, Vertex 4 Ycoordinate
    3;  !- Field_23, Vertex 4 Zcoordinate

BUILDINGSURFACE:DETAILED,
    Zone1_FrontPerimeter_Wall_1,  !- Name, Name
    Wall,  !- Surface Type, Surface Type
    interior_wall_Construction,  !- Construction Name, Construction Name
    Zone1_FrontPerimeter,  !- Zone Name, Zone Name
    ,  !- Space Name, Space Name
    Adiabatic,  !- Outside Boundary Condition, Outside Boundary Condition
    ,  !- Outside Boundary Condition Object, Outside Boundary Condition Object
    NoSun,  !- Sun Exposure, Sun Exposure
    NoWind,  !- Wind Exposure, Wind Exposure
    autocalculate,  !- View Factor to Ground, View Factor to Ground
    autocalculate,  !- Number of Vertices, Number of Vertices
    6,  !- Field_12, Vertex 1 Xcoordinate
    0,  !- Field_13, Vertex 1 Ycoordinate
    3,  !- Field_14, Vertex 1 Zcoordinate
    6,  !- Field_15, Vertex 2 Xcoordinate
    0,  !- Field_16, Vertex 2 Ycoordinate
    0,  !- Field_17, Vertex 2 Zcoordinate
    3.680286600771058,  !- Field_18, Vertex 3 Xcoordinate
    2.319713399228942,  !- Field_19, Vertex 3 Ycoordinate
    0,  !- Field_20, Vertex 3 Zcoordinate
    3.680286600771058,  !- Field_21, Vertex 4 Xcoordinate
    2.319713399228942,  !- Field_22, Vertex 4 Ycoordinate
    3;  !- Field_23, Vertex 4 Zcoordinate

BUILDINGSURFACE:DETAILED,
    Zone1_FrontPerimeter_Wall_2,  !- Name, Name
    Wall,  !- Surface Type, Surface Type
    interior_wall_Construction,  !- Construction Name, Construction Name
    Zone1_FrontPerimeter,  !- Zone Name, Zone Name
    ,  !- Space Name, Space Name
    Surface,  !- Outside Boundary Condition, Outside Boundary Condition
    Zone1_Core_Wall_0,  !- Outside Boundary Condition Object, Outside Boundary Condition Object
    NoSun,  !- Sun Exposure, Sun Exposure
    NoWind,  !- Wind Exposure, Wind Exposure
    autocalculate,  !- View Factor to Ground, View Factor to Ground
    autocalculate,  !- Number of Vertices, Number of Vertices
    3.680286600771058,  !- Field_12, Vertex 1 Xcoordinate
    2.319713399228942,  !- Field_13, Vertex 1 Ycoordinate
    3,  !- Field_14, Vertex 1 Zcoordinate
    3.680286600771058,  !- Field_15, Vertex 2 Xcoordinate
    2.319713399228942,  !- Field_16, Vertex 2 Ycoordinate
    0,  !- Field_17, Vertex 2 Zcoordinate
    2.319713399228942,  !- Field_18, Vertex 3 Xcoordinate
    2.319713399228942,  !- Field_19, Vertex 3 Ycoordinate
    0,  !- Field_20, Vertex 3 Zcoordinate
    2.319713399228942,  !- Field_21, Vertex 4 Xcoordinate
    2.319713399228942,  !- Field_22, Vertex 4 Ycoordinate
    3;  !- Field_23, Vertex 4 Zcoordinate

BUILDINGSURFACE:DETAILED,
    Zone1_FrontPerimeter_Wall_3,  !- Name, Name
    Wall,  !- Surface Type, Surface Type
    interior_wall_Construction,  !- Construction Name, Construction Name
    Zone1_FrontPerimeter,  !- Zone Name, Zone Name
    ,  !- Space Name, Space Name
    Adiabatic,  !- Outside Boundary Condition, Outside Boundary Condition
    ,  !- Outside Boundary Condition Object, Outside Boundary Condition Object
    NoSun,  !- Sun Exposure, Sun Exposure
    NoWind,  !- Wind Exposure, Wind Exposure
    autocalculate,  !- View Factor to Ground, View Factor to Ground
    autocalculate,  !- Number of Vertices, Number of Vertices
    2.319713399228942,  !- Field_12, Vertex 1 Xcoordinate
    2.319713399228942,  !- Field_13, Vertex 1 Ycoordinate
    3,  !- Field_14, Vertex 1 Zcoordinate
    2.319713399228942,  !- Field_15, Vertex 2 Xcoordinate
    2.319713399228942,  !- Field_16, Vertex 2 Ycoordinate
    0,  !- Field_17, Vertex 2 Zcoordinate
    0,  !- Field_18, Vertex 3 Xcoordinate
    0,  !- Field_19, Vertex 3 Ycoordinate
    0,  !- Field_20, Vertex 3 Zcoordinate
    0,  !- Field_21, Vertex 4 Xcoordinate
    0,  !- Field_22, Vertex 4 Ycoordinate
    3;  !- Field_23, Vertex 4 Zcoordinate

BUILDINGSURFACE:DETAILED,
    Zone1_FrontPerimeter_Ceiling,  !- Name, Name
    Ceiling,  !- Surface Type, Surface Type
    inter_floor_Construction,  !- Construction Name, Construction Name
    Zone1_FrontPerimeter,  !- Zone Name, Zone Name
    ,  !- Space Name, Space Name
    Surface,  !- Outside Boundary Condition, Outside Boundary Condition
    Zone2_FrontPerimeter_Floor,  !- Outside Boundary Condition Object, Outside Boundary Condition Object
    NoSun,  !- Sun Exposure, Sun Exposure
    NoWind,  !- Wind Exposure, Wind Exposure
    autocalculate,  !- View Factor to Ground, View Factor to Ground
    autocalculate,  !- Number of Vertices, Number of Vertices
    6,  !- Field_12, Vertex 1 Xcoordinate
    0,  !- Field_13, Vertex 1 Ycoordinate
    3,  !- Field_14, Vertex 1 Zcoordinate
    3.680286600771058,  !- Field_15, Vertex 2 Xcoordinate
    2.319713399228942,  !- Field_16, Vertex 2 Ycoordinate
    3,  !- Field_17, Vertex 2 Zcoordinate
    2.319713399228942,  !- Field_18, Vertex 3 Xcoordinate
    2.319713399228942,  !- Field_19, Vertex 3 Ycoordinate
    3,  !- Field_20, Vertex 3 Zcoordinate
    0,  !- Field_21, Vertex 4 Xcoordinate
    0,  !- Field_22, Vertex 4 Ycoordinate
    3;  !- Field_23, Vertex 4 Zcoordinate

BUILDINGSURFACE:DETAILED,
    Zone1_RightPerimeter_Floor,  !- Name, Name
    Floor,  !- Surface Type, Surface Type
    ground_floor_Construction,  !- Construction Name, Construction Name
    Zone1_RightPerimeter,  !- Zone Name, Zone Name
    ,  !- Space Name, Space Name
    Ground,  !- Outside Boundary Condition, Outside Boundary Condition
    ,  !- Outside Boundary Condition Object, Outside Boundary Condition Object
    NoSun,  !- Sun Exposure, Sun Exposure
    NoWind,  !- Wind Exposure, Wind Exposure
    autocalculate,  !- View Factor to Ground, View Factor to Ground
    autocalculate,  !- Number of Vertices, Number of Vertices
    6,  !- Field_12, Vertex 1 Xcoordinate
    5,  !- Field_13, Vertex 1 Ycoordinate
    0,  !- Field_14, Vertex 1 Zcoordinate
    6,  !- Field_15, Vertex 2 Xcoordinate
    0,  !- Field_16, Vertex 2 Ycoordinate
    0,  !- Field_17, Vertex 2 Zcoordinate
    3.680286600771058,  !- Field_18, Vertex 3 Xcoordinate
    2.319713399228942,  !- Field_19, Vertex 3 Ycoordinate
    0,  !- Field_20, Vertex 3 Zcoordinate
    3.680286600771058,  !- Field_21, Vertex 4 Xcoordinate
    2.680286600771058,  !- Field_22, Vertex 4 Ycoordinate
    0;  !- Field_23, Vertex 4 Zcoordinate

BUILDINGSURFACE:DETAILED,
    Zone1_RightPerimeter_Wall_0,  !- Name, Name
    Wall,  !- Surface Type, Surface Type
    interior_wall_Construction,  !- Construction Name, Construction Name
    Zone1_RightPerimeter,  !- Zone Name, Zone Name
    ,  !- Space Name, Space Name
    Adiabatic,  !- Outside Boundary Condition, Outside Boundary Condition
    ,  !- Outside Boundary Condition Object, Outside Boundary Condition Object
    NoSun,  !- Sun Exposure, Sun Exposure
    NoWind,  !- Wind Exposure, Wind Exposure
    autocalculate,  !- View Factor to Ground, View Factor to Ground
    autocalculate,  !- Number of Vertices, Number of Vertices
    6,  !- Field_12, Vertex 1 Xcoordinate
    0,  !- Field_13, Vertex 1 Ycoordinate
    3,  !- Field_14, Vertex 1 Zcoordinate
    6,  !- Field_15, Vertex 2 Xcoordinate
    0,  !- Field_16, Vertex 2 Ycoordinate
    0,  !- Field_17, Vertex 2 Zcoordinate
    6,  !- Field_18, Vertex 3 Xcoordinate
    5,  !- Field_19, Vertex 3 Ycoordinate
    0,  !- Field_20, Vertex 3 Zcoordinate
    6,  !- Field_21, Vertex 4 Xcoordinate
    5,  !- Field_22, Vertex 4 Ycoordinate
    3;  !- Field_23, Vertex 4 Zcoordinate

BUILDINGSURFACE:DETAILED,
    Zone1_RightPerimeter_Wall_1,  !- Name, Name
    Wall,  !- Surface Type, Surface Type
    interior_wall_Construction,  !- Construction Name, Construction Name
    Zone1_RightPerimeter,  !- Zone Name, Zone Name
    ,  !- Space Name, Space Name
    Adiabatic,  !- Outside Boundary Condition, Outside Boundary Condition
    ,  !- Outside Boundary Condition Object, Outside Boundary Condition Object
    NoSun,  !- Sun Exposure, Sun Exposure
    NoWind,  !- Wind Exposure, Wind Exposure
    autocalculate,  !- View Factor to Ground, View Factor to Ground
    autocalculate,  !- Number of Vertices, Number of Vertices
    6,  !- Field_12, Vertex 1 Xcoordinate
    5,  !- Field_13, Vertex 1 Ycoordinate
    3,  !- Field_14, Vertex 1 Zcoordinate
    6,  !- Field_15, Vertex 2 Xcoordinate
    5,  !- Field_16, Vertex 2 Ycoordinate
    0,  !- Field_17, Vertex 2 Zcoordinate
    3.680286600771058,  !- Field_18, Vertex 3 Xcoordinate
    2.680286600771058,  !- Field_19, Vertex 3 Ycoordinate
    0,  !- Field_20, Vertex 3 Zcoordinate
    3.680286600771058,  !- Field_21, Vertex 4 Xcoordinate
    2.680286600771058,  !- Field_22, Vertex 4 Ycoordinate
    3;  !- Field_23, Vertex 4 Zcoordinate

BUILDINGSURFACE:DETAILED,
    Zone1_RightPerimeter_Wall_2,  !- Name, Name
    Wall,  !- Surface Type, Surface Type
    interior_wall_Construction,  !- Construction Name, Construction Name
    Zone1_RightPerimeter,  !- Zone Name, Zone Name
    ,  !- Space Name, Space Name
    Surface,  !- Outside Boundary Condition, Outside Boundary Condition
    Zone1_Core_Wall_1,  !- Outside Boundary Condition Object, Outside Boundary Condition Object
    NoSun,  !- Sun Exposure, Sun Exposure
    NoWind,  !- Wind Exposure, Wind Exposure
    autocalculate,  !- View Factor to Ground, View Factor to Ground
    autocalculate,  !- Number of Vertices, Number of Vertices
    3.680286600771058,  !- Field_12, Vertex 1 Xcoordinate
    2.680286600771058,  !- Field_13, Vertex 1 Ycoordinate
    3,  !- Field_14, Vertex 1 Zcoordinate
    3.680286600771058,  !- Field_15, Vertex 2 Xcoordinate
    2.680286600771058,  !- Field_16, Vertex 2 Ycoordinate
    0,  !- Field_17, Vertex 2 Zcoordinate
    3.680286600771058,  !- Field_18, Vertex 3 Xcoordinate
    2.319713399228942,  !- Field_19, Vertex 3 Ycoordinate
    0,  !- Field_20, Vertex 3 Zcoordinate
    3.680286600771058,  !- Field_21, Vertex 4 Xcoordinate
    2.319713399228942,  !- Field_22, Vertex 4 Ycoordinate
    3;  !- Field_23, Vertex 4 Zcoordinate

BUILDINGSURFACE:DETAILED,
    Zone1_RightPerimeter_Wall_3,  !- Name, Name
    Wall,  !- Surface Type, Surface Type
    interior_wall_Construction,  !- Construction Name, Construction Name