!- Linux Line endings 

Version,
    22.2;                     !- Version Identifier

SimulationControl,
    Yes,                      !- Do Zone Sizing Calculation
    Yes,                      !- Do System Sizing Calculation
    Yes,                      !- Do Plant Sizing Calculation
    No,                       !- Run Simulation for Sizing Periods
    Yes,                      !- Run Simulation for Weather File Run Periods
    No,                       !- Do HVAC Sizing Simulation for Sizing Periods
    ;                         !- Maximum Number of HVAC Sizing Simulation Passes

BUILDING,
    Sample_Building_2,        !- Name
    0,                        !- North Axis
    Suburbs,                  !- Terrain
    0.04,                     !- Loads Convergence Tolerance Value
    0.4,                      !- Temperature Convergence Tolerance Value
    FullExterior,             !- Solar Distribution
    25,                       !- Maximum Number of Warmup Days
    1;                        !- Minimum Number of Warmup Days

Timestep,
    4;                        !- Number of Timesteps per Hour

Site:Location,
    Amsterdam_Netherlands,    !- Name
    52.37,                    !- Latitude
    4.89,                     !- Longitude
    1,                        !- Time Zone
    -2;                       !- Elevation

SizingPeriod:DesignDay,
    Netherlands Ann Htg 99.6% Condns DB,    !- Name
    1,                        !- Month
    21,                       !- Day of Month
    WinterDesignDay,          !- Day Type
    -5,                       !- Maximum DryBulb Temperature
    0,                        !- Daily DryBulb Temperature Range
    ,                         !- DryBulb Temperature Range Modifier Type
    ,                         !- DryBulb Temperature Range Modifier Day Schedule Name
    Wetbulb,                  !- Humidity Condition Type
    -5,                       !- Wetbulb or DewPoint at Maximum DryBulb
    ,                         !- Humidity Condition Day Schedule Name
    ,                         !- Humidity Ratio at Maximum DryBulb
    ,                         !- Enthalpy at Maximum DryBulb
    ,                         !- Daily WetBulb Temperature Range
    102000,                   !- Barometric Pressure
    4,                        !- Wind Speed
    270,                      !- Wind Direction
    No,                       !- Rain Indicator
    No,                       !- Snow Indicator
    No,                       !- Daylight Saving Time Indicator
    ASHRAEClearSky,           !- Solar Model Indicator
    ,                         !- Beam Solar Day Schedule Name
    ,                         !- Diffuse Solar Day Schedule Name
    ,                         !- ASHRAE Clear Sky Optical Depth for Beam Irradiance taub
    ,                         !- ASHRAE Clear Sky Optical Depth for Diffuse Irradiance taud
    0;                        !- Sky Clearness

SizingPeriod:DesignDay,
    Netherlands Ann Clg 1% Condns DB=>MWB,    !- Name
    7,                        !- Month
    21,                       !- Day of Month
    SummerDesignDay,          !- Day Type
    28,                       !- Maximum DryBulb Temperature
    10,                       !- Daily DryBulb Temperature Range
    ,                         !- DryBulb Temperature Range Modifier Type
    ,                         !- DryBulb Temperature Range Modifier Day Schedule Name
    Wetbulb,                  !- Humidity Condition Type
    17,                       !- Wetbulb or DewPoint at Maximum DryBulb
    ,                         !- Humidity Condition Day Schedule Name
    ,                         !- Humidity Ratio at Maximum DryBulb
    ,                         !- Enthalpy at Maximum DryBulb
    ,                         !- Daily WetBulb Temperature Range
    102000,                   !- Barometric Pressure
    3.5,                      !- Wind Speed
    90,                       !- Wind Direction
    No,                       !- Rain Indicator
    No,                       !- Snow Indicator
    No,                       !- Daylight Saving Time Indicator
    ASHRAEClearSky,           !- Solar Model Indicator
    ,                         !- Beam Solar Day Schedule Name
    ,                         !- Diffuse Solar Day Schedule Name
    ,                         !- ASHRAE Clear Sky Optical Depth for Beam Irradiance taub
    ,                         !- ASHRAE Clear Sky Optical Depth for Diffuse Irradiance taud
    1;                        !- Sky Clearness

RunPeriod,
    Run Period 1,             !- Name
    1,                        !- Begin Month
    1,                        !- Begin Day of Month
    ,                         !- Begin Year
    12,                       !- End Month
    31,                       !- End Day of Month
    ,                         !- End Year
    Tuesday,                  !- Day of Week for Start Day
    Yes,                      !- Use Weather File Holidays and Special Days
    Yes,                      !- Use Weather File Daylight Saving Period
    No,                       !- Apply Weekend Holiday Rule
    Yes,                      !- Use Weather File Rain Indicators
    Yes;                      !- Use Weather File Snow Indicators

SITE:GROUNDTEMPERATURE:BUILDINGSURFACE,
    2.4085358792544938,       !- January Ground Temperature
    4.312958013656894,        !- February Ground Temperature
    5.724073232958546,        !- March Ground Temperature
    7.44166411048861,         !- April Ground Temperature
    13.450319041156293,       !- May Ground Temperature
    15.52909725326811,        !- June Ground Temperature
    17.233301066885726,       !- July Ground Temperature
    17.517611251774134,       !- August Ground Temperature
    14.313380670166728,       !- September Ground Temperature
    10.027426417005351,       !- October Ground Temperature
    8.968478731132652,        !- November Ground Temperature
    4.387020522862876;        !- December Ground Temperature

SCHEDULETYPELIMITS,
    Temperature,              !- Name
    -100,                     !- Lower Limit Value
    200,                      !- Upper Limit Value
    CONTINUOUS,               !- Numeric Type
    Dimensionless;            !- Unit Type

SCHEDULETYPELIMITS,
    ControlType,              !- Name
    0,                        !- Lower Limit Value
    4,                        !- Upper Limit Value
    DISCRETE,                 !- Numeric Type
    Dimensionless;            !- Unit Type

SCHEDULETYPELIMITS,
    Fraction,                 !- Name
    0,                        !- Lower Limit Value
    1,                        !- Upper Limit Value
    CONTINUOUS,               !- Numeric Type
    Dimensionless;            !- Unit Type

Schedule:Compact,
    ALWAYS22C,                !- Name
    Temperature,              !- Schedule Type Limits Name
    Through: 12/31,           !- Field 1
    For: AllDays,             !- Field 2
    Until: 24:00,             !- Field 3
    22.0;                     !- Field 4

SCHEDULE:COMPACT,
    LightsSchedule,           !- Name
    Fraction,                 !- Schedule Type Limits Name
    Through: 12/31,           !- Field 1
    For: WeekDays,            !- Field 2
    Until: 08:00,0.01,        !- Field 3
    Until: 09:00,0.25,        !- Field 4
    Until: 12:00,0.70,        !- Field 5
    Until: 13:00,0.30,        !- Field 6
    Until: 17:00,0.70,        !- Field 7
    Until: 18:00,0.20,        !- Field 8
    Until: 24:00,0.01,        !- Field 9
    For: Saturday,            !- Field 10
    Until: 24:00,0.01,        !- Field 11
    For: Sunday,              !- Field 12
    Until: 24:00,0.01;        !- Field 13

SCHEDULE:COMPACT,
    ParasiticSchedule,        !- Name
    Fraction,                 !- Schedule Type Limits Name
    Through: 12/31,           !- Field 1
    For: AllDays,             !- Field 2
    Until: 24:00,1.0;         !- Field 3

SCHEDULE:COMPACT,
    EquipSchedule,            !- Name
    Fraction,                 !- Schedule Type Limits Name
    Through: 12/31,           !- Field 1
    For: WeekDays,            !- Field 2
    Until: 08:00,0.02,        !- Field 3
    Until: 09:00,0.20,        !- Field 4
    Until: 12:00,0.50,        !- Field 5
    Until: 13:00,0.15,        !- Field 6
    Until: 17:00,0.50,        !- Field 7
    Until: 18:00,0.10,        !- Field 8
    Until: 24:00,0.02,        !- Field 9
    For: Saturday,            !- Field 10
    Until: 24:00,0.02,        !- Field 11
    For: Sunday,              !- Field 12
    Until: 24:00,0.02;        !- Field 13

SCHEDULE:COMPACT,
    MyDHW_2_UseFraction,      !- Name
    Fraction,                 !- Schedule Type Limits Name
    Through: 12/31,           !- Field 1
    For: AllDays,             !- Field 2
    Until: 06:00, 0.0,        !- Field 3
    Until: 08:00, 0.60,       !- Field 4
    Until: 10:00, 0.93,       !- Field 5
    Until: 17:00, 0.25,       !- Field 6
    Until: 21:00, 1.00,       !- Field 7
    Until: 24:00, 0.60;       !- Field 8

SCHEDULE:COMPACT,
    MyDHW_2_Setpoint,         !- Name
    Temperature,              !- Schedule Type Limits Name
    Through: 12/31,           !- Field 1
    For: AllDays,             !- Field 2
    Until: 24:00, 58.45031904115629;    !- Field 3

SCHEDULE:COMPACT,
    HVAC_Avail_Sched,         !- Name
    Fraction,                 !- Schedule Type Limits Name
    Through: 12/31,           !- Field 1
    For: WeekDays,            !- Field 2
    Until: 08:00,0,           !- Field 3
    Until: 12:00,1,           !- Field 4
    Until: 13:00,0.8,         !- Field 5
    Until: 18:00,1,           !- Field 6
    Until: 24:00,0,           !- Field 7
    For: Saturday,            !- Field 8
    Until: 09:00,0,           !- Field 9
    Until: 14:00,0.5,         !- Field 10
    Until: 24:00,0,           !- Field 11
    For: Sunday,              !- Field 12
    Until: 24:00,0,           !- Field 13
    For: SummerDesignDay,     !- Field 14
    Until: 24:00,1,           !- Field 15
    For: WinterDesignDay,     !- Field 16
    Until: 24:00,1;;          !- Field 17

SCHEDULE:COMPACT,
    ZONE_HEATING_SETPOINTS,    !- Name
    Temperature,              !- Schedule Type Limits Name
    Through: 12/31,           !- Field 1
    For: WeekDays,            !- Field 2
    Until: 08:00,16,          !- Field 3
    Until: 18:00,20,          !- Field 4
    Until: 24:00,16,          !- Field 5
    For: Saturday,            !- Field 6
    Until: 08:00,16,          !- Field 7
    Until: 18:00,20,          !- Field 8
    Until: 24:00,16,          !- Field 9
    For: Sunday,              !- Field 10
    Until: 08:00,16,          !- Field 11
    Until: 18:00,20,          !- Field 12
    Until: 24:00,16,          !- Field 13
    For: Holiday,             !- Field 14
    Until: 08:00,16,          !- Field 15
    Until: 18:00,20,          !- Field 16
    Until: 24:00,16,          !- Field 17
    For: SummerDesignDay,     !- Field 18
    Until: 24:00,20,          !- Field 19
    For: WinterDesignDay,     !- Field 20
    Until: 24:00,20;;         !- Field 21

SCHEDULE:COMPACT,
    ZONE_COOLING_SETPOINTS,    !- Name
    Temperature,              !- Schedule Type Limits Name
    Through: 12/31,           !- Field 1
    For: WeekDays,            !- Field 2
    Until: 08:00,26,          !- Field 3
    Until: 18:00,24,          !- Field 4
    Until: 24:00,26,          !- Field 5
    For: Saturday,            !- Field 6
    Until: 08:00,26,          !- Field 7
    Until: 18:00,24,          !- Field 8
    Until: 24:00,26,          !- Field 9
    For: Sunday,              !- Field 10
    Until: 08:00,26,          !- Field 11
    Until: 18:00,24,          !- Field 12
    Until: 24:00,26,          !- Field 13
    For: Holiday,             !- Field 14
    Until: 08:00,26,          !- Field 15
    Until: 18:00,24,          !- Field 16
    Until: 24:00,26,          !- Field 17
    For: SummerDesignDay,     !- Field 18
    Until: 24:00,24,          !- Field 19
    For: WinterDesignDay,     !- Field 20
    Until: 24:00,24;;         !- Field 21

SCHEDULE:COMPACT,
    ZONE_CONTROL_TYPE_SCHEDULE,    !- Name
    ControlType,              !- Schedule Type Limits Name
    Through: 12/31,           !- Field 1
    For: AllDays,             !- Field 2
    Until: 24:00,4;;          !- Field 3

SCHEDULE:COMPACT,
    VentSched_Meeting_Function,    !- Name
    Fraction,                 !- Schedule Type Limits Name
    Through: 12/31,           !- Field 1
    For: Weekdays SummerDesignDay WinterDesignDay,    !- Field 2
    Until: 08:00,0.0529,      !- Field 3
    Until: 12:00,0.9117,      !- Field 4
    Until: 14:00,0.7013,      !- Field 5
    Until: 17:00,0.9157,      !- Field 6
    Until: 24:00,0.1014,      !- Field 7
    For: Saturday Sunday Holiday AllOtherDays,    !- Field 8
    Until: 24:00,0.0989;      !- Field 9

SCHEDULE:COMPACT,
    InfilSched_Meeting_Function,    !- Name
    Fraction,                 !- Schedule Type Limits Name
    Through: 12/31,           !- Field 1
    For: Weekdays SummerDesignDay WinterDesignDay,    !- Field 2
    Until: 07:00,0.9387,      !- Field 3
    Until: 18:00,0.1378,      !- Field 4
    Until: 24:00,0.8810,      !- Field 5
    For: Saturday Sunday Holiday AllOtherDays,    !- Field 6
    Until: 24:00,0.9691;      !- Field 7

SCHEDULE:CONSTANT,
    AlwaysOnSched,            !- Name
    Fraction,                 !- Schedule Type Limits Name
    1;                        !- Hourly Value

MATERIAL,
    Concrete_200mm,           !- Name
    MediumRough,              !- Roughness
    2.001371e-01,             !- Thickness
    0.0601012408663744,       !- Conductivity
    2319.351026143144,        !- Density
    887.8426571123281,        !- Specific Heat
    0.9,                      !- Thermal Absorptance
    0.7,                      !- Solar Absorptance
    0.7;                      !- Visible Absorptance

MATERIAL:NOMASS,
    NR_Roof_U0.3,             !- Name
    MediumRough,              !- Roughness
    3.33,                     !- Thermal Resistance
    0.9034435733114229,       !- Thermal Absorptance
    0.697565678216636,        !- Solar Absorptance
    0.6940297480280957;       !- Visible Absorptance

MATERIAL:NOMASS,
    NR_InternalFloor_R1.0,    !- Name
    MediumSmooth,             !- Roughness
    1,                        !- Thermal Resistance
    0.9021099592064535,       !- Thermal Absorptance
    0.6945681375798151,       !- Solar Absorptance
    0.6939809336233188;       !- Visible Absorptance

MATERIAL:NOMASS,
    NR_InteriorWall_R0.5,     !- Name
    MediumSmooth,             !- Roughness
    0.5,                      !- Thermal Resistance
    0.9082606184160539,       !- Thermal Absorptance
    0.4960771686541377,       !- Solar Absorptance
    0.5012531696872284;       !- Visible Absorptance

MATERIAL:NOMASS,
    NR_GroundFloor_U0.3,      !- Name
    MediumRough,              !- Roughness
    0.7142857142857143,       !- Thermal Resistance
    0.8916300599292064,       !- Thermal Absorptance
    0.6984023038546844,       !- Solar Absorptance
    0.6996819335867873;       !- Visible Absorptance

MATERIAL:NOMASS,
    NR_Door_U1.2,             !- Name
    MediumRough,              !- Roughness
    0.83,                     !- Thermal Resistance
    0.895650243635834,        !- Thermal Absorptance
    0.6964715049778807,       !- Solar Absorptance
    0.6936888663218038;       !- Visible Absorptance

WINDOWMATERIAL:SIMPLEGLAZINGSYSTEM,
    NR_Window_U1.4_SHGC0.45,    !- Name
    1.4,                      !- UFactor
    4.542520e-01,             !- Solar Heat Gain Coefficient
    0.7;                      !- Visible Transmittance

WINDOWMATERIAL:BLIND,
    MyExternalLouvers_Zone1_Wall_2_window,    !- Name
    Horizontal,               !- Slat Orientation
    0.025,                    !- Slat Width
    0.02,                     !- Slat Separation
    0.001,                    !- Slat Thickness
    45,                       !- Slat Angle
    160,                      !- Slat Conductivity
    0,                        !- Slat Beam Solar Transmittance
    0.7,                      !- Front Side Slat Beam Solar Reflectance
    0.7,                      !- Back Side Slat Beam Solar Reflectance
    0,                        !- Slat Diffuse Solar Transmittance
    0.7,                      !- Front Side Slat Diffuse Solar Reflectance
    0.7,                      !- Back Side Slat Diffuse Solar Reflectance
    0,                        !- Slat Beam Visible Transmittance
    0.7,                      !- Front Side Slat Beam Visible Reflectance
    0.7,                      !- Back Side Slat Beam Visible Reflectance
    0,                        !- Slat Diffuse Visible Transmittance
    0.7,                      !- Front Side Slat Diffuse Visible Reflectance
    0.7,                      !- Back Side Slat Diffuse Visible Reflectance
    0,                        !- Slat Infrared Hemispherical Transmittance
    0.9,                      !- Front Side Slat Infrared Hemispherical Emissivity
    0.9,                      !- Back Side Slat Infrared Hemispherical Emissivity
    0.05,                     !- Blind to Glass Distance
    0.5,                      !- Blind Top Opening Multiplier
    0,                        !- Blind Bottom Opening Multiplier
    0.5,                      !- Blind Left Side Opening Multiplier
    0.5,                      !- Blind Right Side Opening Multiplier
    0,                        !- Minimum Slat Angle
    180;                      !- Maximum Slat Angle

WINDOWMATERIAL:BLIND,
    MyExternalLouvers_Zone1_Wall_3_window,    !- Name
    Horizontal,               !- Slat Orientation
    0.025,                    !- Slat Width
    0.02,                     !- Slat Separation
    0.001,                    !- Slat Thickness
    45,                       !- Slat Angle
    160,                      !- Slat Conductivity
    0,                        !- Slat Beam Solar Transmittance
    0.7,                      !- Front Side Slat Beam Solar Reflectance
    0.7,                      !- Back Side Slat Beam Solar Reflectance
    0,                        !- Slat Diffuse Solar Transmittance
    0.7,                      !- Front Side Slat Diffuse Solar Reflectance
    0.7,                      !- Back Side Slat Diffuse Solar Reflectance
    0,                        !- Slat Beam Visible Transmittance
    0.7,                      !- Front Side Slat Beam Visible Reflectance
    0.7,                      !- Back Side Slat Beam Visible Reflectance
    0,                        !- Slat Diffuse Visible Transmittance
    0.7,                      !- Front Side Slat Diffuse Visible Reflectance
    0.7,                      !- Back Side Slat Diffuse Visible Reflectance
    0,                        !- Slat Infrared Hemispherical Transmittance
    0.9,                      !- Front Side Slat Infrared Hemispherical Emissivity
    0.9,                      !- Back Side Slat Infrared Hemispherical Emissivity
    0.05,                     !- Blind to Glass Distance
    0.5,                      !- Blind Top Opening Multiplier
    0,                        !- Blind Bottom Opening Multiplier
    0.5,                      !- Blind Left Side Opening Multiplier
    0.5,                      !- Blind Right Side Opening Multiplier
    0,                        !- Minimum Slat Angle
    180;                      !- Maximum Slat Angle

CONSTRUCTION,
    CEILING1C,                !- Name
    NR_Roof_U0.3;             !- Outside Layer

CONSTRUCTION,
    Ext_Walls1C,              !- Name
    Concrete_200mm;           !- Outside Layer

CONSTRUCTION,
    Int_Walls1C,              !- Name
    NR_InteriorWall_R0.5;     !- Outside Layer

CONSTRUCTION,
    Roof1C,                   !- Name
    NR_Roof_U0.3;             !- Outside Layer

CONSTRUCTION,
    GroundFloor1C,            !- Name
    NR_GroundFloor_U0.3;      !- Outside Layer

CONSTRUCTION,
    IntFloor1C,               !- Name
    NR_InternalFloor_R1.0;    !- Outside Layer

CONSTRUCTION,
    Window1C,                 !- Name
    NR_Window_U1.4_SHGC0.45;    !- Outside Layer

CONSTRUCTION,
    ground_floor_Construction,    !- Name
    NR_GroundFloor_U0.3;      !- Outside Layer

CONSTRUCTION,
    exterior_wall_Construction,    !- Name
    Concrete_200mm;           !- Outside Layer

CONSTRUCTION,
    flat_roof_Construction,    !- Name
    NR_Roof_U0.3;             !- Outside Layer

CONSTRUCTION,
    inter_floor_Construction,    !- Name
    NR_InternalFloor_R1.0;    !- Outside Layer

CONSTRUCTION,
    interior_wall_Construction,    !- Name
    NR_InteriorWall_R0.5;     !- Outside Layer

CONSTRUCTION,
    windows_Construction,     !- Name
    NR_GroundFloor_U0.3;      !- Outside Layer

CONSTRUCTION,
    windows_WindowConst,      !- Name
    NR_Window_U1.4_SHGC0.45;    !- Outside Layer

CONSTRUCTION,
    doors_Construction,       !- Name
    NR_Door_U1.2;             !- Outside Layer

GlobalGeometryRules,
    UpperLeftCorner,          !- Starting Vertex Position
    CounterClockWise,         !- Vertex Entry Direction
    Relative;                 !- Coordinate System

ZONE,
    Zone1,                    !- Name
    0,                        !- Direction of Relative North
    0,                        !- X Origin
    0,                        !- Y Origin
    0,                        !- Z Origin
    1,                        !- Type
    1,                        !- Multiplier
    autocalculate,            !- Ceiling Height
    autocalculate,            !- Volume
    autocalculate,            !- Floor Area
    ,                         !- Zone Inside Convection Algorithm
    ,                         !- Zone Outside Convection Algorithm
    Yes;                      !- Part of Total Floor Area

ZONELIST,
    ALL_ZONES,                !- Name
    Zone1;                    !- Zone 1 Name

BUILDINGSURFACE:DETAILED,
    Zone1_Floor,              !- Name
    Floor,                    !- Surface Type
    ground_floor_Construction,    !- Construction Name
    Zone1,                    !- Zone Name
    ,                         !- Space Name
    Ground,                   !- Outside Boundary Condition
    ,                         !- Outside Boundary Condition Object
    NoSun,                    !- Sun Exposure
    NoWind,                   !- Wind Exposure
    autocalculate,            !- View Factor to Ground
    autocalculate,            !- Number of Vertices
    -7.713892158398699,       !- Vertex 1 Xcoordinate
    7.7138921583987,          !- Vertex 1 Ycoordinate
    0,                        !- Vertex 1 Zcoordinate
    0,                        !- Vertex 2 Xcoordinate
    0,                        !- Vertex 2 Ycoordinate
    0,                        !- Vertex 2 Zcoordinate
    -7.778174593052023,       !- Vertex 3 Xcoordinate
    -7.778174593052022,       !- Vertex 3 Ycoordinate
    0,                        !- Vertex 3 Zcoordinate
    -1.549207e+01,            !- Vertex 4 Xcoordinate
    -6.428243e-02,            !- Vertex 4 Ycoordinate
    0;                        !- Vertex 4 Zcoordinate

BUILDINGSURFACE:DETAILED,
    Zone1_Wall_0,             !- Name
    Wall,                     !- Surface Type
    interior_wall_Construction,    !- Construction Name
    Zone1,                    !- Zone Name
    ,                         !- Space Name
    Adiabatic,                !- Outside Boundary Condition
    ,                         !- Outside Boundary Condition Object
    NoSun,                    !- Sun Exposure
    NoWind,                   !- Wind Exposure
    autocalculate,            !- View Factor to Ground
    autocalculate,            !- Number of Vertices
    0,                        !- Vertex 1 Xcoordinate
    0,                        !- Vertex 1 Ycoordinate
    4,                        !- Vertex 1 Zcoordinate
    0,                        !- Vertex 2 Xcoordinate
    0,                        !- Vertex 2 Ycoordinate
    0,                        !- Vertex 2 Zcoordinate
    -7.713892158398699,       !- Vertex 3 Xcoordinate
    7.7138921583987,          !- Vertex 3 Ycoordinate
    0,                        !- Vertex 3 Zcoordinate
    -7.713892158398699,       !- Vertex 4 Xcoordinate
    7.7138921583987,          !- Vertex 4 Ycoordinate
    4;                        !- Vertex 4 Zcoordinate

BUILDINGSURFACE:DETAILED,
    Zone1_Wall_1,             !- Name
    Wall,                     !- Surface Type
    interior_wall_Construction,    !- Construction Name
    Zone1,                    !- Zone Name
    ,                         !- Space Name
    Adiabatic,                !- Outside Boundary Condition
    ,                         !- Outside Boundary Condition Object
    NoSun,                    !- Sun Exposure
    NoWind,                   !- Wind Exposure
    autocalculate,            !- View Factor to Ground
    autocalculate,            !- Number of Vertices
    -7.713892158398699,       !- Vertex 1 Xcoordinate
    7.7138921583987,          !- Vertex 1 Ycoordinate
    4,                        !- Vertex 1 Zcoordinate
    -7.713892158398699,       !- Vertex 2 Xcoordinate
    7.7138921583987,          !- Vertex 2 Ycoordinate
    0,                        !- Vertex 2 Zcoordinate
    -1.549207e+01,            !- Vertex 3 Xcoordinate
    -6.428243e-02,            !- Vertex 3 Ycoordinate
    0,                        !- Vertex 3 Zcoordinate
    -1.549207e+01,            !- Vertex 4 Xcoordinate
    -6.428243e-02,            !- Vertex 4 Ycoordinate
    4;                        !- Vertex 4 Zcoordinate

BUILDINGSURFACE:DETAILED,
    Zone1_Wall_2,             !- Name
    Wall,                     !- Surface Type
    exterior_wall_Construction,    !- Construction Name
    Zone1,                    !- Zone Name
    ,                         !- Space Name
    Outdoors,                 !- Outside Boundary Condition
    ,                         !- Outside Boundary Condition Object
    SunExposed,               !- Sun Exposure
    WindExposed,              !- Wind Exposure
    autocalculate,            !- View Factor to Ground
    autocalculate,            !- Number of Vertices
    -1.549207e+01,            !- Vertex 1 Xcoordinate
    -6.428243e-02,            !- Vertex 1 Ycoordinate
    4,                        !- Vertex 1 Zcoordinate
    -1.549207e+01,            !- Vertex 2 Xcoordinate
    -6.428243e-02,            !- Vertex 2 Ycoordinate
    0,                        !- Vertex 2 Zcoordinate
    -7.778174593052023,       !- Vertex 3 Xcoordinate
    -7.778174593052022,       !- Vertex 3 Ycoordinate
    0,                        !- Vertex 3 Zcoordinate
    -7.778174593052023,       !- Vertex 4 Xcoordinate
    -7.778174593052022,       !- Vertex 4 Ycoordinate
    4;                        !- Vertex 4 Zcoordinate

BUILDINGSURFACE:DETAILED,
    Zone1_Wall_3,             !- Name
    Wall,                     !- Surface Type
    exterior_wall_Construction,    !- Construction Name
    Zone1,                    !- Zone Name
    ,                         !- Space Name
    Outdoors,                 !- Outside Boundary Condition
    ,                         !- Outside Boundary Condition Object
    SunExposed,               !- Sun Exposure
    WindExposed,              !- Wind Exposure
    autocalculate,            !- View Factor to Ground
    autocalculate,            !- Number of Vertices
    -7.778174593052023,       !- Vertex 1 Xcoordinate
    -7.778174593052022,       !- Vertex 1 Ycoordinate
    4,                        !- Vertex 1 Zcoordinate
    -7.778174593052023,       !- Vertex 2 Xcoordinate
    -7.778174593052022,       !- Vertex 2 Ycoordinate
    0,                        !- Vertex 2 Zcoordinate
    0,                        !- Vertex 3 Xcoordinate
    0,                        !- Vertex 3 Ycoordinate
    0,                        !- Vertex 3 Zcoordinate
    0,                        !- Vertex 4 Xcoordinate
    0,                        !- Vertex 4 Ycoordinate
    4;                        !- Vertex 4 Zcoordinate

BUILDINGSURFACE:DETAILED,
    Zone1_Roof,               !- Name
    Roof,                     !- Surface Type
    flat_roof_Construction,    !- Construction Name
    Zone1,                    !- Zone Name
    ,                         !- Space Name
    Outdoors,                 !- Outside Boundary Condition
    ,                         !- Outside Boundary Condition Object
    SunExposed,               !- Sun Exposure
    WindExposed,              !- Wind Exposure
    autocalculate,            !- View Factor to Ground
    autocalculate,            !- Number of Vertices
    0,                        !- Vertex 1 Xcoordinate
    0,                        !- Vertex 1 Ycoordinate
    4,                        !- Vertex 1 Zcoordinate
    -7.713892158398699,       !- Vertex 2 Xcoordinate
    7.7138921583987,          !- Vertex 2 Ycoordinate
    4,                        !- Vertex 2 Zcoordinate
    -1.549207e+01,            !- Vertex 3 Xcoordinate
    -6.428243e-02,            !- Vertex 3 Ycoordinate
    4,                        !- Vertex 3 Zcoordinate
    -7.778174593052023,       !- Vertex 4 Xcoordinate
    -7.778174593052022,       !- Vertex 4 Ycoordinate
    4;                        !- Vertex 4 Zcoordinate

FENESTRATIONSURFACE:DETAILED,
    Zone1_Wall_2 window,      !- Name
    Window,                   !- Surface Type
    Window1C,                 !- Construction Name
    Zone1_Wall_2,             !- Building Surface Name
    ,                         !- Outside Boundary Condition Object
    autocalculate,            !- View Factor to Ground
    ,                         !- Frame and Divider Name
    1.0,                      !- Multiplier
    autocalculate,            !- Number of Vertices
    -1.548821e+01,            !- Vertex 1 Xcoordinate
    -6.813938e-02,            !- Vertex 1 Ycoordinate
    2.6,                      !- Vertex 1 Zcoordinate
    -1.548821e+01,            !- Vertex 2 Xcoordinate