!- Linux Line endings 

Version,
    22.2;                     !- Version Identifier

SimulationControl,
    Yes,                      !- Do Zone Sizing Calculation
    Yes,                      !- Do System Sizing Calculation
    Yes,                      !- Do Plant Sizing Calculation
    No,                       !- Run Simulation for Sizing Periods
    Yes,                      !- Run Simulation for Weather File Run Periods
    No,                       !- Do HVAC Sizing Simulation for Sizing Periods
    ;                         !- Maximum Number of HVAC Sizing Simulation Passes

BUILDING,
    Sample_Building_1,        !- Name
    0,                        !- North Axis
    Suburbs,                  !- Terrain
    0.04,                     !- Loads Convergence Tolerance Value
    0.4,                      !- Temperature Convergence Tolerance Value
    FullExterior,             !- Solar Distribution
    25,                       !- Maximum Number of Warmup Days
    1;                        !- Minimum Number of Warmup Days

Timestep,
    4;                        !- Number of Timesteps per Hour

Site:Location,
    Amsterdam_Netherlands,    !- Name
    52.37,                    !- Latitude
    4.89,                     !- Longitude
    1,                        !- Time Zone
    -2;                       !- Elevation

SizingPeriod:DesignDay,
    Netherlands Ann Htg 99.6% Condns DB,    !- Name
    1,                        !- Month
    21,                       !- Day of Month
    WinterDesignDay,          !- Day Type
    -5,                       !- Maximum DryBulb Temperature
    0,                        !- Daily DryBulb Temperature Range
    ,                         !- DryBulb Temperature Range Modifier Type
    ,                         !- DryBulb Temperature Range Modifier Day Schedule Name
    Wetbulb,                  !- Humidity Condition Type
    -5,                       !- Wetbulb or DewPoint at Maximum DryBulb
    ,                         !- Humidity Condition Day Schedule Name
    ,                         !- Humidity Ratio at Maximum DryBulb
    ,                         !- Enthalpy at Maximum DryBulb
    ,                         !- Daily WetBulb Temperature Range
    102000,                   !- Barometric Pressure
    4,                        !- Wind Speed
    270,                      !- Wind Direction
    No,                       !- Rain Indicator
    No,                       !- Snow Indicator
    No,                       !- Daylight Saving Time Indicator
    ASHRAEClearSky,           !- Solar Model Indicator
    ,                         !- Beam Solar Day Schedule Name
    ,                         !- Diffuse Solar Day Schedule Name
    ,                         !- ASHRAE Clear Sky Optical Depth for Beam Irradiance taub
    ,                         !- ASHRAE Clear Sky Optical Depth for Diffuse Irradiance taud
    0;                        !- Sky Clearness

SizingPeriod:DesignDay,
    Netherlands Ann Clg 1% Condns DB=>MWB,    !- Name
    7,                        !- Month
    21,                       !- Day of Month
    SummerDesignDay,          !- Day Type
    28,                       !- Maximum DryBulb Temperature
    10,                       !- Daily DryBulb Temperature Range
    ,                         !- DryBulb Temperature Range Modifier Type
    ,                         !- DryBulb Temperature Range Modifier Day Schedule Name
    Wetbulb,                  !- Humidity Condition Type
    17,                       !- Wetbulb or DewPoint at Maximum DryBulb
    ,                         !- Humidity Condition Day Schedule Name
    ,                         !- Humidity Ratio at Maximum DryBulb
    ,                         !- Enthalpy at Maximum DryBulb
    ,                         !- Daily WetBulb Temperature Range
    102000,                   !- Barometric Pressure
    3.5,                      !- Wind Speed
    90,                       !- Wind Direction
    No,                       !- Rain Indicator
    No,                       !- Snow Indicator
    No,                       !- Daylight Saving Time Indicator
    ASHRAEClearSky,           !- Solar Model Indicator
    ,                         !- Beam Solar Day Schedule Name
    ,                         !- Diffuse Solar Day Schedule Name
    ,                         !- ASHRAE Clear Sky Optical Depth for Beam Irradiance taub
    ,                         !- ASHRAE Clear Sky Optical Depth for Diffuse Irradiance taud
    1;                        !- Sky Clearness

RunPeriod,
    Run Period 1,             !- Name
    1,                        !- Begin Month
    1,                        !- Begin Day of Month
    ,                         !- Begin Year
    12,                       !- End Month
    31,                       !- End Day of Month
    ,                         !- End Year
    Tuesday,                  !- Day of Week for Start Day
    Yes,                      !- Use Weather File Holidays and Special Days
    Yes,                      !- Use Weather File Daylight Saving Period
    No,                       !- Apply Weekend Holiday Rule
    Yes,                      !- Use Weather File Rain Indicators
    Yes;                      !- Use Weather File Snow Indicators

SITE:GROUNDTEMPERATURE:BUILDINGSURFACE,
    2.03855183933738,         !- January Ground Temperature
    4.544336483955579,        !- February Ground Temperature
    4.2878664427907225,       !- March Ground Temperature
    8.156330637072719,        !- April Ground Temperature
    14.343293528235534,       !- May Ground Temperature
    16.292951271655294,       !- June Ground Temperature
    17.906378456932426,       !- July Ground Temperature
    18.4965444595961,         !- August Ground Temperature
    14.038314216048695,       !- September Ground Temperature
    9.86477767790288,         !- October Ground Temperature
    7.117124042462779,        !- November Ground Temperature
    4.7045772663817065;       !- December Ground Temperature

SCHEDULETYPELIMITS,
    Temperature,              !- Name
    -100,                     !- Lower Limit Value
    200,                      !- Upper Limit Value
    CONTINUOUS,               !- Numeric Type
    Dimensionless;            !- Unit Type

SCHEDULETYPELIMITS,
    ControlType,              !- Name
    0,                        !- Lower Limit Value
    4,                        !- Upper Limit Value
    DISCRETE,                 !- Numeric Type
    Dimensionless;            !- Unit Type

SCHEDULETYPELIMITS,
    Fraction,                 !- Name
    0,                        !- Lower Limit Value
    1,                        !- Upper Limit Value
    CONTINUOUS,               !- Numeric Type
    Dimensionless;            !- Unit Type

Schedule:Compact,
    ALWAYS22C,                !- Name
    Temperature,              !- Schedule Type Limits Name
    Through: 12/31,           !- Field 1
    For: AllDays,             !- Field 2
    Until: 24:00,             !- Field 3
    22.0;                     !- Field 4

SCHEDULE:COMPACT,
    LightsSchedule,           !- Name
    Fraction,                 !- Schedule Type Limits Name
    Through: 12/31,           !- Field 1
    For: WeekDays,            !- Field 2
    Until: 08:00,0.01,        !- Field 3
    Until: 09:00,0.25,        !- Field 4
    Until: 12:00,0.70,        !- Field 5
    Until: 13:00,0.30,        !- Field 6
    Until: 17:00,0.70,        !- Field 7
    Until: 18:00,0.20,        !- Field 8
    Until: 24:00,0.01,        !- Field 9
    For: Saturday,            !- Field 10
    Until: 24:00,0.01,        !- Field 11
    For: Sunday,              !- Field 12
    Until: 24:00,0.01;        !- Field 13

SCHEDULE:COMPACT,
    ParasiticSchedule,        !- Name
    Fraction,                 !- Schedule Type Limits Name
    Through: 12/31,           !- Field 1
    For: AllDays,             !- Field 2
    Until: 24:00,1.0;         !- Field 3

SCHEDULE:COMPACT,
    EquipSchedule,            !- Name
    Fraction,                 !- Schedule Type Limits Name
    Through: 12/31,           !- Field 1
    For: WeekDays,            !- Field 2
    Until: 08:00,0.02,        !- Field 3
    Until: 09:00,0.20,        !- Field 4
    Until: 12:00,0.50,        !- Field 5
    Until: 13:00,0.15,        !- Field 6
    Until: 17:00,0.50,        !- Field 7
    Until: 18:00,0.10,        !- Field 8
    Until: 24:00,0.02,        !- Field 9
    For: Saturday,            !- Field 10
    Until: 24:00,0.02,        !- Field 11
    For: Sunday,              !- Field 12
    Until: 24:00,0.02;        !- Field 13

SCHEDULE:COMPACT,
    MyDHW_1_UseFraction,      !- Name
    Fraction,                 !- Schedule Type Limits Name
    Through: 12/31,           !- Field 1
    For: AllDays,             !- Field 2
    Until: 06:00, 0.0,        !- Field 3
    Until: 08:00, 0.70,       !- Field 4
    Until: 10:00, 0.90,       !- Field 5
    Until: 17:00, 0.24,       !- Field 6
    Until: 21:00, 0.75,       !- Field 7
    Until: 24:00, 0.70;       !- Field 8

SCHEDULE:COMPACT,
    MyDHW_1_Setpoint,         !- Name
    Temperature,              !- Schedule Type Limits Name
    Through: 12/31,           !- Field 1
    For: AllDays,             !- Field 2
    Until: 24:00, 59.343293528235534;    !- Field 3

SCHEDULE:COMPACT,
    HVAC_Avail_Sched,         !- Name
    Fraction,                 !- Schedule Type Limits Name
    Through: 12/31,           !- Field 1
    For: WeekDays,            !- Field 2
    Until: 08:00,0,           !- Field 3
    Until: 12:00,1,           !- Field 4
    Until: 13:00,0.8,         !- Field 5
    Until: 18:00,1,           !- Field 6
    Until: 24:00,0,           !- Field 7
    For: Saturday,            !- Field 8
    Until: 09:00,0,           !- Field 9
    Until: 14:00,0.5,         !- Field 10
    Until: 24:00,0,           !- Field 11
    For: Sunday,              !- Field 12
    Until: 24:00,0,           !- Field 13
    For: SummerDesignDay,     !- Field 14
    Until: 24:00,1,           !- Field 15
    For: WinterDesignDay,     !- Field 16
    Until: 24:00,1;;          !- Field 17

SCHEDULE:COMPACT,
    ZONE_HEATING_SETPOINTS,    !- Name
    Temperature,              !- Schedule Type Limits Name
    Through: 12/31,           !- Field 1
    For: WeekDays,            !- Field 2
    Until: 08:00,16,          !- Field 3
    Until: 18:00,20,          !- Field 4
    Until: 24:00,16,          !- Field 5
    For: Saturday,            !- Field 6
    Until: 08:00,16,          !- Field 7
    Until: 18:00,20,          !- Field 8
    Until: 24:00,16,          !- Field 9
    For: Sunday,              !- Field 10
    Until: 08:00,16,          !- Field 11
    Until: 18:00,20,          !- Field 12
    Until: 24:00,16,          !- Field 13
    For: Holiday,             !- Field 14
    Until: 08:00,16,          !- Field 15
    Until: 18:00,20,          !- Field 16
    Until: 24:00,16,          !- Field 17
    For: SummerDesignDay,     !- Field 18
    Until: 24:00,20,          !- Field 19
    For: WinterDesignDay,     !- Field 20
    Until: 24:00,20;;         !- Field 21

SCHEDULE:COMPACT,
    ZONE_COOLING_SETPOINTS,    !- Name
    Temperature,              !- Schedule Type Limits Name
    Through: 12/31,           !- Field 1
    For: WeekDays,            !- Field 2
    Until: 08:00,26,          !- Field 3
    Until: 18:00,24,          !- Field 4
    Until: 24:00,26,          !- Field 5
    For: Saturday,            !- Field 6
    Until: 08:00,26,          !- Field 7
    Until: 18:00,24,          !- Field 8
    Until: 24:00,26,          !- Field 9
    For: Sunday,              !- Field 10
    Until: 08:00,26,          !- Field 11
    Until: 18:00,24,          !- Field 12
    Until: 24:00,26,          !- Field 13
    For: Holiday,             !- Field 14
    Until: 08:00,26,          !- Field 15
    Until: 18:00,24,          !- Field 16
    Until: 24:00,26,          !- Field 17
    For: SummerDesignDay,     !- Field 18
    Until: 24:00,24,          !- Field 19
    For: WinterDesignDay,     !- Field 20
    Until: 24:00,24;;         !- Field 21

SCHEDULE:COMPACT,
    ZONE_CONTROL_TYPE_SCHEDULE,    !- Name
    ControlType,              !- Schedule Type Limits Name
    Through: 12/31,           !- Field 1
    For: AllDays,             !- Field 2
    Until: 24:00,4;;          !- Field 3

SCHEDULE:COMPACT,
    VentSched_Meeting_Function,    !- Name
    Fraction,                 !- Schedule Type Limits Name
    Through: 12/31,           !- Field 1
    For: Weekdays SummerDesignDay WinterDesignDay,    !- Field 2
    Until: 08:00,0.1293,      !- Field 3
    Until: 12:00,0.9453,      !- Field 4
    Until: 14:00,0.7747,      !- Field 5
    Until: 17:00,0.9019,      !- Field 6
    Until: 24:00,0.0932,      !- Field 7
    For: Saturday Sunday Holiday AllOtherDays,    !- Field 8
    Until: 24:00,0.0372;      !- Field 9

SCHEDULE:COMPACT,
    InfilSched_Meeting_Function,    !- Name
    Fraction,                 !- Schedule Type Limits Name
    Through: 12/31,           !- Field 1
    For: Weekdays SummerDesignDay WinterDesignDay,    !- Field 2
    Until: 07:00,0.9705,      !- Field 3
    Until: 18:00,0.1547,      !- Field 4
    Until: 24:00,0.9511,      !- Field 5
    For: Saturday Sunday Holiday AllOtherDays,    !- Field 6
    Until: 24:00,0.9434;      !- Field 7

SCHEDULE:CONSTANT,
    AlwaysOnSched,            !- Name
    Fraction,                 !- Schedule Type Limits Name
    1;                        !- Hourly Value

MATERIAL,
    Concrete_200mm,           !- Name
    MediumRough,              !- Roughness
    0.1993238883895144,       !- Thickness
    5.985702e-02,             !- Conductivity
    2335.228863319085,        !- Density
    904.6983904291005,        !- Specific Heat
    0.9,                      !- Thermal Absorptance
    0.7,                      !- Solar Absorptance
    0.7;                      !- Visible Absorptance

MATERIAL:NOMASS,
    NR_Roof_U0.3,             !- Name
    MediumRough,              !- Roughness
    3.33,                     !- Thermal Resistance
    0.8988132264993403,       !- Thermal Absorptance
    0.6954666334599856,       !- Solar Absorptance
    0.7049122535251249;       !- Visible Absorptance

MATERIAL:NOMASS,
    NR_InternalFloor_R1.0,    !- Name
    MediumSmooth,             !- Roughness
    1,                        !- Thermal Resistance
    0.8977654491421762,       !- Thermal Absorptance
    0.6943404035884784,       !- Solar Absorptance
    0.7001740248477691;       !- Visible Absorptance

MATERIAL:NOMASS,
    NR_InteriorWall_R0.5,     !- Name
    MediumSmooth,             !- Roughness
    0.5,                      !- Thermal Resistance
    0.9049014178437244,       !- Thermal Absorptance
    0.500972169189021,        !- Solar Absorptance
    0.5000667601281357;       !- Visible Absorptance

MATERIAL:NOMASS,
    NR_GroundFloor_U0.3,      !- Name
    MediumRough,              !- Roughness
    0.7142857142857143,       !- Thermal Resistance
    0.89778465334433,         !- Thermal Absorptance
    0.6936848763831686,       !- Solar Absorptance
    0.6938569494978537;       !- Visible Absorptance

MATERIAL:NOMASS,
    NR_Door_U1.2,             !- Name
    MediumRough,              !- Roughness
    0.83,                     !- Thermal Resistance
    0.8963308761041986,       !- Thermal Absorptance
    0.7054425318470495,       !- Solar Absorptance
    0.7003115381950833;       !- Visible Absorptance

WINDOWMATERIAL:SIMPLEGLAZINGSYSTEM,
    NR_Window_U1.4_SHGC0.45,    !- Name
    1.4,                      !- UFactor
    4.544771e-01,             !- Solar Heat Gain Coefficient
    0.7;                      !- Visible Transmittance

WINDOWMATERIAL:BLIND,
    MyExternalLouvers_Zone1_RearPerimeter_Wall_0_window,    !- Name
    Horizontal,               !- Slat Orientation
    0.025,                    !- Slat Width
    0.02,                     !- Slat Separation
    0.001,                    !- Slat Thickness
    45,                       !- Slat Angle
    160,                      !- Slat Conductivity
    0,                        !- Slat Beam Solar Transmittance
    0.7,                      !- Front Side Slat Beam Solar Reflectance
    0.7,                      !- Back Side Slat Beam Solar Reflectance
    0,                        !- Slat Diffuse Solar Transmittance
    0.7,                      !- Front Side Slat Diffuse Solar Reflectance
    0.7,                      !- Back Side Slat Diffuse Solar Reflectance
    0,                        !- Slat Beam Visible Transmittance
    0.7,                      !- Front Side Slat Beam Visible Reflectance
    0.7,                      !- Back Side Slat Beam Visible Reflectance
    0,                        !- Slat Diffuse Visible Transmittance
    0.7,                      !- Front Side Slat Diffuse Visible Reflectance
    0.7,                      !- Back Side Slat Diffuse Visible Reflectance
    0,                        !- Slat Infrared Hemispherical Transmittance
    0.9,                      !- Front Side Slat Infrared Hemispherical Emissivity
    0.9,                      !- Back Side Slat Infrared Hemispherical Emissivity
    0.05,                     !- Blind to Glass Distance
    0.5,                      !- Blind Top Opening Multiplier
    0,                        !- Blind Bottom Opening Multiplier
    0.5,                      !- Blind Left Side Opening Multiplier
    0.5,                      !- Blind Right Side Opening Multiplier
    0,                        !- Minimum Slat Angle
    180;                      !- Maximum Slat Angle

WINDOWMATERIAL:BLIND,
    MyExternalLouvers_Zone1_LeftPerimeter_Wall_0_window,    !- Name
    Horizontal,               !- Slat Orientation
    0.025,                    !- Slat Width
    0.02,                     !- Slat Separation
    0.001,                    !- Slat Thickness
    45,                       !- Slat Angle
    160,                      !- Slat Conductivity
    0,                        !- Slat Beam Solar Transmittance
    0.7,                      !- Front Side Slat Beam Solar Reflectance
    0.7,                      !- Back Side Slat Beam Solar Reflectance
    0,                        !- Slat Diffuse Solar Transmittance
    0.7,                      !- Front Side Slat Diffuse Solar Reflectance
    0.7,                      !- Back Side Slat Diffuse Solar Reflectance
    0,                        !- Slat Beam Visible Transmittance
    0.7,                      !- Front Side Slat Beam Visible Reflectance
    0.7,                      !- Back Side Slat Beam Visible Reflectance
    0,                        !- Slat Diffuse Visible Transmittance
    0.7,                      !- Front Side Slat Diffuse Visible Reflectance
    0.7,                      !- Back Side Slat Diffuse Visible Reflectance
    0,                        !- Slat Infrared Hemispherical Transmittance
    0.9,                      !- Front Side Slat Infrared Hemispherical Emissivity
    0.9,                      !- Back Side Slat Infrared Hemispherical Emissivity
    0.05,                     !- Blind to Glass Distance
    0.5,                      !- Blind Top Opening Multiplier
    0,                        !- Blind Bottom Opening Multiplier
    0.5,                      !- Blind Left Side Opening Multiplier
    0.5,                      !- Blind Right Side Opening Multiplier
    0,                        !- Minimum Slat Angle
    180;                      !- Maximum Slat Angle

CONSTRUCTION,
    CEILING1C,                !- Name
    NR_Roof_U0.3;             !- Outside Layer

CONSTRUCTION,
    Ext_Walls1C,              !- Name
    Concrete_200mm;           !- Outside Layer

CONSTRUCTION,
    Int_Walls1C,              !- Name
    NR_InteriorWall_R0.5;     !- Outside Layer

CONSTRUCTION,
    Roof1C,                   !- Name
    NR_Roof_U0.3;             !- Outside Layer

CONSTRUCTION,
    GroundFloor1C,            !- Name
    NR_GroundFloor_U0.3;      !- Outside Layer

CONSTRUCTION,
    IntFloor1C,               !- Name
    NR_InternalFloor_R1.0;    !- Outside Layer

CONSTRUCTION,
    Window1C,                 !- Name
    NR_Window_U1.4_SHGC0.45;    !- Outside Layer

CONSTRUCTION,
    ground_floor_Construction,    !- Name
    NR_GroundFloor_U0.3;      !- Outside Layer

CONSTRUCTION,
    exterior_wall_Construction,    !- Name
    Concrete_200mm;           !- Outside Layer

CONSTRUCTION,
    flat_roof_Construction,    !- Name
    NR_Roof_U0.3;             !- Outside Layer

CONSTRUCTION,
    inter_floor_Construction,    !- Name
    NR_InternalFloor_R1.0;    !- Outside Layer

CONSTRUCTION,
    interior_wall_Construction,    !- Name
    NR_InteriorWall_R0.5;     !- Outside Layer

CONSTRUCTION,
    windows_Construction,     !- Name
    NR_GroundFloor_U0.3;      !- Outside Layer

CONSTRUCTION,
    windows_WindowConst,      !- Name
    NR_Window_U1.4_SHGC0.45;    !- Outside Layer

CONSTRUCTION,
    doors_Construction,       !- Name
    NR_Door_U1.2;             !- Outside Layer

GlobalGeometryRules,
    UpperLeftCorner,          !- Starting Vertex Position
    CounterClockWise,         !- Vertex Entry Direction
    Relative;                 !- Coordinate System

ZONE,
    Zone1_FrontPerimeter,     !- Name
    0,                        !- Direction of Relative North
    0,                        !- X Origin
    0,                        !- Y Origin
    0,                        !- Z Origin
    1,                        !- Type
    1,                        !- Multiplier
    autocalculate,            !- Ceiling Height
    autocalculate,            !- Volume
    autocalculate,            !- Floor Area
    ,                         !- Zone Inside Convection Algorithm
    ,                         !- Zone Outside Convection Algorithm
    Yes;                      !- Part of Total Floor Area

ZONE,
    Zone1_RightPerimeter,     !- Name
    0,                        !- Direction of Relative North
    0,                        !- X Origin
    0,                        !- Y Origin
    0,                        !- Z Origin
    1,                        !- Type
    1,                        !- Multiplier
    autocalculate,            !- Ceiling Height
    autocalculate,            !- Volume
    autocalculate,            !- Floor Area
    ,                         !- Zone Inside Convection Algorithm
    ,                         !- Zone Outside Convection Algorithm
    Yes;                      !- Part of Total Floor Area

ZONE,
    Zone1_RearPerimeter,      !- Name
    0,                        !- Direction of Relative North
    0,                        !- X Origin
    0,                        !- Y Origin
    0,                        !- Z Origin
    1,                        !- Type
    1,                        !- Multiplier
    autocalculate,            !- Ceiling Height
    autocalculate,            !- Volume
    autocalculate,            !- Floor Area
    ,                         !- Zone Inside Convection Algorithm
    ,                         !- Zone Outside Convection Algorithm
    Yes;                      !- Part of Total Floor Area

ZONE,
    Zone1_LeftPerimeter,      !- Name
    0,                        !- Direction of Relative North
    0,                        !- X Origin
    0,                        !- Y Origin
    0,                        !- Z Origin
    1,                        !- Type
    1,                        !- Multiplier
    autocalculate,            !- Ceiling Height
    autocalculate,            !- Volume
    autocalculate,            !- Floor Area
    ,                         !- Zone Inside Convection Algorithm
    ,                         !- Zone Outside Convection Algorithm
    Yes;                      !- Part of Total Floor Area

ZONE,
    Zone1_Core,               !- Name
    0,                        !- Direction of Relative North
    0,                        !- X Origin
    0,                        !- Y Origin
    0,                        !- Z Origin
    1,                        !- Type
    1,                        !- Multiplier
    autocalculate,            !- Ceiling Height
    autocalculate,            !- Volume
    autocalculate,            !- Floor Area
    ,                         !- Zone Inside Convection Algorithm
    ,                         !- Zone Outside Convection Algorithm
    Yes;                      !- Part of Total Floor Area

ZONELIST,
    ALL_ZONES,                !- Name
    Zone1_FrontPerimeter,     !- Zone 1 Name
    Zone1_RightPerimeter,     !- Zone 2 Name
    Zone1_RearPerimeter,      !- Zone 3 Name
    Zone1_LeftPerimeter,      !- Zone 4 Name
    Zone1_Core;               !- Zone 5 Name

BUILDINGSURFACE:DETAILED,
    Zone1_FrontPerimeter_Floor,    !- Name
    Floor,                    !- Surface Type
    ground_floor_Construction,    !- Construction Name
    Zone1_FrontPerimeter,     !- Zone Name
    ,                         !- Space Name
    Ground,                   !- Outside Boundary Condition
    ,                         !- Outside Boundary Condition Object
    NoSun,                    !- Sun Exposure
    NoWind,                   !- Wind Exposure
    autocalculate,            !- View Factor to Ground
    autocalculate,            !- Number of Vertices
    -7.713892158398699,       !- Vertex 1 Xcoordinate
    7.7138921583987,          !- Vertex 1 Ycoordinate
    0,                        !- Vertex 1 Zcoordinate
    0,                        !- Vertex 2 Xcoordinate
    0,                        !- Vertex 2 Ycoordinate
    0,                        !- Vertex 2 Zcoordinate
    -1.468734096418446,       !- Vertex 3 Xcoordinate
    -3.330669e-16,            !- Vertex 3 Ycoordinate
    0,                        !- Vertex 3 Zcoordinate
    -7.713892158398698,       !- Vertex 4 Xcoordinate
    6.245158061980253,        !- Vertex 4 Ycoordinate
    0;                        !- Vertex 4 Zcoordinate

BUILDINGSURFACE:DETAILED,
    Zone1_FrontPerimeter_Wall_0,    !- Name
    Wall,                     !- Surface Type
    interior_wall_Construction,    !- Construction Name
    Zone1_FrontPerimeter,     !- Zone Name
    ,                         !- Space Name
    Adiabatic,                !- Outside Boundary Condition
    ,                         !- Outside Boundary Condition Object
    NoSun,                    !- Sun Exposure
    NoWind,                   !- Wind Exposure
    autocalculate,            !- View Factor to Ground
    autocalculate,            !- Number of Vertices
    0,                        !- Vertex 1 Xcoordinate
    0,                        !- Vertex 1 Ycoordinate
    4,                        !- Vertex 1 Zcoordinate
    0,                        !- Vertex 2 Xcoordinate
    0,                        !- Vertex 2 Ycoordinate
    0,                        !- Vertex 2 Zcoordinate
    -7.713892158398699,       !- Vertex 3 Xcoordinate
    7.7138921583987,          !- Vertex 3 Ycoordinate
    0,                        !- Vertex 3 Zcoordinate
    -7.713892158398699,       !- Vertex 4 Xcoordinate
    7.7138921583987,          !- Vertex 4 Ycoordinate
    4;                        !- Vertex 4 Zcoordinate

BUILDINGSURFACE:DETAILED,
    Zone1_FrontPerimeter_Wall_1,    !- Name
    Wall,                     !- Surface Type
    interior_wall_Construction,    !- Construction Name
    Zone1_FrontPerimeter,     !- Zone Name
    ,                         !- Space Name
    Adiabatic,                !- Outside Boundary Condition
    ,                         !- Outside Boundary Condition Object
    NoSun,                    !- Sun Exposure
    NoWind,                   !- Wind Exposure
    autocalculate,            !- View Factor to Ground
    autocalculate,            !- Number of Vertices
    -7.713892158398699,       !- Vertex 1 Xcoordinate
    7.7138921583987,          !- Vertex 1 Ycoordinate
    4,                        !- Vertex 1 Zcoordinate
    -7.713892158398699,       !- Vertex 2 Xcoordinate
    7.7138921583987,          !- Vertex 2 Ycoordinate
    0,                        !- Vertex 2 Zcoordinate
    -7.713892158398698,       !- Vertex 3 Xcoordinate
    6.245158061980253,        !- Vertex 3 Ycoordinate
    0,                        !- Vertex 3 Zcoordinate
    -7.713892158398698,       !- Vertex 4 Xcoordinate
    6.245158061980253,        !- Vertex 4 Ycoordinate
    4;                        !- Vertex 4 Zcoordinate

BUILDINGSURFACE:DETAILED,
    Zone1_FrontPerimeter_Wall_2,    !- Name
    Wall,                     !- Surface Type
    interior_wall_Construction,    !- Construction Name
    Zone1_FrontPerimeter,     !- Zone Name
    ,                         !- Space Name
    Surface,                  !- Outside Boundary Condition
    Zone1_Core_Wall_0,        !- Outside Boundary Condition Object
    NoSun,                    !- Sun Exposure
    NoWind,                   !- Wind Exposure
    autocalculate,            !- View Factor to Ground
    autocalculate,            !- Number of Vertices
    -7.713892158398698,       !- Vertex 1 Xcoordinate
    6.245158061980253,        !- Vertex 1 Ycoordinate
    4,                        !- Vertex 1 Zcoordinate
    -7.713892158398698,       !- Vertex 2 Xcoordinate
    6.245158061980253,        !- Vertex 2 Ycoordinate
    0,                        !- Vertex 2 Zcoordinate
    -1.468734096418446,       !- Vertex 3 Xcoordinate
    -3.330669e-16,            !- Vertex 3 Ycoordinate
    0,                        !- Vertex 3 Zcoordinate
    -1.468734096418446,       !- Vertex 4 Xcoordinate
    -3.330669e-16,            !- Vertex 4 Ycoordinate
    4;                        !- Vertex 4 Zcoordinate

BUILDINGSURFACE:DETAILED,
    Zone1_FrontPerimeter_Wall_3,    !- Name
    Wall,                     !- Surface Type
    interior_wall_Construction,    !- Construction Name
    Zone1_FrontPerimeter,     !- Zone Name
    ,                         !- Space Name
    Adiabatic,                !- Outside Boundary Condition
    ,                         !- Outside Boundary Condition Object