!- Linux Line endings 

Version,
    22.2;                     !- Version Identifier

SimulationControl,
    Yes,                      !- Do Zone Sizing Calculation
    Yes,                      !- Do System Sizing Calculation
    Yes,                      !- Do Plant Sizing Calculation
    No,                       !- Run Simulation for Sizing Periods
    Yes,                      !- Run Simulation for Weather File Run Periods
    No,                       !- Do HVAC Sizing Simulation for Sizing Periods
    ;                         !- Maximum Number of HVAC Sizing Simulation Passes

BUILDING,
    Sample_Building_0,        !- Name
    0,                        !- North Axis
    Suburbs,                  !- Terrain
    0.04,                     !- Loads Convergence Tolerance Value
    0.4,                      !- Temperature Convergence Tolerance Value
    FullExterior,             !- Solar Distribution
    25,                       !- Maximum Number of Warmup Days
    1;                        !- Minimum Number of Warmup Days

Timestep,
    4;                        !- Number of Timesteps per Hour

Site:Location,
    Amsterdam_Netherlands,    !- Name
    52.37,                    !- Latitude
    4.89,                     !- Longitude
    1,                        !- Time Zone
    -2;                       !- Elevation

SizingPeriod:DesignDay,
    Netherlands Ann Htg 99.6% Condns DB,    !- Name
    1,                        !- Month
    21,                       !- Day of Month
    WinterDesignDay,          !- Day Type
    -5,                       !- Maximum DryBulb Temperature
    0,                        !- Daily DryBulb Temperature Range
    ,                         !- DryBulb Temperature Range Modifier Type
    ,                         !- DryBulb Temperature Range Modifier Day Schedule Name
    Wetbulb,                  !- Humidity Condition Type
    -5,                       !- Wetbulb or DewPoint at Maximum DryBulb
    ,                         !- Humidity Condition Day Schedule Name
    ,                         !- Humidity Ratio at Maximum DryBulb
    ,                         !- Enthalpy at Maximum DryBulb
    ,                         !- Daily WetBulb Temperature Range
    102000,                   !- Barometric Pressure
    4,                        !- Wind Speed
    270,                      !- Wind Direction
    No,                       !- Rain Indicator
    No,                       !- Snow Indicator
    No,                       !- Daylight Saving Time Indicator
    ASHRAEClearSky,           !- Solar Model Indicator
    ,                         !- Beam Solar Day Schedule Name
    ,                         !- Diffuse Solar Day Schedule Name
    ,                         !- ASHRAE Clear Sky Optical Depth for Beam Irradiance taub
    ,                         !- ASHRAE Clear Sky Optical Depth for Diffuse Irradiance taud
    0;                        !- Sky Clearness

SizingPeriod:DesignDay,
    Netherlands Ann Clg 1% Condns DB=>MWB,    !- Name
    7,                        !- Month
    21,                       !- Day of Month
    SummerDesignDay,          !- Day Type
    28,                       !- Maximum DryBulb Temperature
    10,                       !- Daily DryBulb Temperature Range
    ,                         !- DryBulb Temperature Range Modifier Type
    ,                         !- DryBulb Temperature Range Modifier Day Schedule Name
    Wetbulb,                  !- Humidity Condition Type
    17,                       !- Wetbulb or DewPoint at Maximum DryBulb
    ,                         !- Humidity Condition Day Schedule Name
    ,                         !- Humidity Ratio at Maximum DryBulb
    ,                         !- Enthalpy at Maximum DryBulb
    ,                         !- Daily WetBulb Temperature Range
    102000,                   !- Barometric Pressure
    3.5,                      !- Wind Speed
    90,                       !- Wind Direction
    No,                       !- Rain Indicator
    No,                       !- Snow Indicator
    No,                       !- Daylight Saving Time Indicator
    ASHRAEClearSky,           !- Solar Model Indicator
    ,                         !- Beam Solar Day Schedule Name
    ,                         !- Diffuse Solar Day Schedule Name
    ,                         !- ASHRAE Clear Sky Optical Depth for Beam Irradiance taub
    ,                         !- ASHRAE Clear Sky Optical Depth for Diffuse Irradiance taud
    1;                        !- Sky Clearness

RunPeriod,
    Run Period 1,             !- Name
    1,                        !- Begin Month
    1,                        !- Begin Day of Month
    ,                         !- Begin Year
    12,                       !- End Month
    31,                       !- End Day of Month
    ,                         !- End Year
    Tuesday,                  !- Day of Week for Start Day
    Yes,                      !- Use Weather File Holidays and Special Days
    Yes,                      !- Use Weather File Daylight Saving Period
    No,                       !- Apply Weekend Holiday Rule
    Yes,                      !- Use Weather File Rain Indicators
    Yes;                      !- Use Weather File Snow Indicators

SITE:GROUNDTEMPERATURE:BUILDINGSURFACE,
    2.6394267984578836,       !- January Ground Temperature
    3.5375161328340003,       !- February Ground Temperature
    4.550058636738239,        !- March Ground Temperature
    7.558026845372057,        !- April Ground Temperature
    14.472942428328025,       !- May Ground Temperature
    16.176699487422912,       !- June Ground Temperature
    18.78435913540969,        !- July Ground Temperature
    17.673877665258832,       !- August Ground Temperature
    14.84384363937054,        !- September Ground Temperature
    9.059594438876141,        !- October Ground Temperature
    6.65591392441081,         !- November Ground Temperature
    4.0107105762067246;       !- December Ground Temperature

SCHEDULETYPELIMITS,
    Temperature,              !- Name
    -100,                     !- Lower Limit Value
    200,                      !- Upper Limit Value
    CONTINUOUS,               !- Numeric Type
    Dimensionless;            !- Unit Type

SCHEDULETYPELIMITS,
    ControlType,              !- Name
    0,                        !- Lower Limit Value
    4,                        !- Upper Limit Value
    DISCRETE,                 !- Numeric Type
    Dimensionless;            !- Unit Type

SCHEDULETYPELIMITS,
    Fraction,                 !- Name
    0,                        !- Lower Limit Value
    1,                        !- Upper Limit Value
    CONTINUOUS,               !- Numeric Type
    Dimensionless;            !- Unit Type

Schedule:Compact,
    ALWAYS22C,                !- Name
    Temperature,              !- Schedule Type Limits Name
    Through: 12/31,           !- Field 1
    For: AllDays,             !- Field 2
    Until: 24:00,             !- Field 3
    22.0;                     !- Field 4

SCHEDULE:COMPACT,
    LightsSchedule,           !- Name
    Fraction,                 !- Schedule Type Limits Name
    Through: 12/31,           !- Field 1
    For: WeekDays,            !- Field 2
    Until: 06:00,0.03,        !- Field 3
    Until: 09:00,0.25,        !- Field 4
    Until: 17:00,0.08,        !- Field 5
    Until: 22:00,0.45,        !- Field 6
    Until: 24:00,0.03,        !- Field 7
    For: Saturday,            !- Field 8
    Until: 07:00,0.05,        !- Field 9
    Until: 22:00,0.35,        !- Field 10
    Until: 24:00,0.05,        !- Field 11
    For: Sunday,              !- Field 12
    Until: 07:00,0.05,        !- Field 13
    Until: 22:00,0.35,        !- Field 14
    Until: 24:00,0.05;        !- Field 15

SCHEDULE:COMPACT,
    ParasiticSchedule,        !- Name
    Fraction,                 !- Schedule Type Limits Name
    Through: 12/31,           !- Field 1
    For: AllDays,             !- Field 2
    Until: 24:00,1.0;         !- Field 3

SCHEDULE:COMPACT,
    EquipSchedule,            !- Name
    Fraction,                 !- Schedule Type Limits Name
    Through: 12/31,           !- Field 1
    For: WeekDays,            !- Field 2
    Until: 06:00,0.08,        !- Field 3
    Until: 09:00,0.35,        !- Field 4
    Until: 17:00,0.18,        !- Field 5
    Until: 22:00,0.50,        !- Field 6
    Until: 24:00,0.15,        !- Field 7
    For: Saturday,            !- Field 8
    Until: 07:00,0.10,        !- Field 9
    Until: 22:00,0.45,        !- Field 10
    Until: 24:00,0.15,        !- Field 11
    For: Sunday,              !- Field 12
    Until: 07:00,0.10,        !- Field 13
    Until: 22:00,0.45,        !- Field 14
    Until: 24:00,0.15;        !- Field 15

SCHEDULE:COMPACT,
    MyDHW_0_UseFraction,      !- Name
    Fraction,                 !- Schedule Type Limits Name
    Through: 12/31,           !- Field 1
    For: AllDays,             !- Field 2
    Until: 06:00, 0.0,        !- Field 3
    Until: 08:00, 0.62,       !- Field 4
    Until: 10:00, 0.98,       !- Field 5
    Until: 17:00, 0.20,       !- Field 6
    Until: 21:00, 0.69,       !- Field 7
    Until: 24:00, 0.62;       !- Field 8

SCHEDULE:COMPACT,
    MyDHW_0_Setpoint,         !- Name
    Temperature,              !- Schedule Type Limits Name
    Through: 12/31,           !- Field 1
    For: AllDays,             !- Field 2
    Until: 24:00, 59.472942428328025;    !- Field 3

SCHEDULE:COMPACT,
    HVAC_Avail_Sched,         !- Name
    Fraction,                 !- Schedule Type Limits Name
    Through: 12/31,           !- Field 1
    For: WeekDays,            !- Field 2
    Until: 07:00,0,           !- Field 3
    Until: 09:00,1,           !- Field 4
    Until: 17:00,0.6,         !- Field 5
    Until: 23:00,1,           !- Field 6
    Until: 24:00,0,           !- Field 7
    For: Saturday,            !- Field 8
    Until: 09:00,0,           !- Field 9
    Until: 18:00,0.5,         !- Field 10
    Until: 24:00,0,           !- Field 11
    For: Sunday,              !- Field 12
    Until: 09:00,0,           !- Field 13
    Until: 19:00,0.5,         !- Field 14
    Until: 24:00,0,           !- Field 15
    For: SummerDesignDay,     !- Field 16
    Until: 24:00,1,           !- Field 17
    For: WinterDesignDay,     !- Field 18
    Until: 24:00,1;;          !- Field 19

SCHEDULE:COMPACT,
    ZONE_HEATING_SETPOINTS,    !- Name
    Temperature,              !- Schedule Type Limits Name
    Through: 12/31,           !- Field 1
    For: WeekDays,            !- Field 2
    Until: 07:00,15.025,      !- Field 3
    Until: 23:00,19.639,      !- Field 4
    Until: 24:00,15.025,      !- Field 5
    For: Saturday,            !- Field 6
    Until: 07:00,15.025,      !- Field 7
    Until: 23:00,19.639,      !- Field 8
    Until: 24:00,15.025,      !- Field 9
    For: Sunday,              !- Field 10
    Until: 07:00,15.025,      !- Field 11
    Until: 23:00,19.639,      !- Field 12
    Until: 24:00,15.025,      !- Field 13
    For: Holiday,             !- Field 14
    Until: 07:00,15.025,      !- Field 15
    Until: 23:00,19.639,      !- Field 16
    Until: 24:00,15.025,      !- Field 17
    For: SummerDesignDay,     !- Field 18
    Until: 24:00,19.639,      !- Field 19
    For: WinterDesignDay,     !- Field 20
    Until: 24:00,19.639;;     !- Field 21

SCHEDULE:COMPACT,
    ZONE_COOLING_SETPOINTS,    !- Name
    Temperature,              !- Schedule Type Limits Name
    Through: 12/31,           !- Field 1
    For: WeekDays,            !- Field 2
    Until: 07:00,32.446,      !- Field 3
    Until: 23:00,32.55,       !- Field 4
    Until: 24:00,32.446,      !- Field 5
    For: Saturday,            !- Field 6
    Until: 07:00,32.446,      !- Field 7
    Until: 23:00,32.55,       !- Field 8
    Until: 24:00,32.446,      !- Field 9
    For: Sunday,              !- Field 10
    Until: 07:00,32.446,      !- Field 11
    Until: 23:00,32.55,       !- Field 12
    Until: 24:00,32.446,      !- Field 13
    For: Holiday,             !- Field 14
    Until: 07:00,32.446,      !- Field 15
    Until: 23:00,32.55,       !- Field 16
    Until: 24:00,32.446,      !- Field 17
    For: SummerDesignDay,     !- Field 18
    Until: 24:00,32.55,       !- Field 19
    For: WinterDesignDay,     !- Field 20
    Until: 24:00,32.55;;      !- Field 21

SCHEDULE:COMPACT,
    ZONE_CONTROL_TYPE_SCHEDULE,    !- Name
    ControlType,              !- Schedule Type Limits Name
    Through: 12/31,           !- Field 1
    For: AllDays,             !- Field 2
    Until: 24:00,4;;          !- Field 3

SCHEDULE:COMPACT,
    VentSched_Twoandahalfstory_House,    !- Name
    Fraction,                 !- Schedule Type Limits Name
    Through: 12/31,           !- Field 1
    For: Weekdays SummerDesignDay WinterDesignDay,    !- Field 2
    Until: 06:00,0.3174,      !- Field 3
    Until: 09:00,0.8844,      !- Field 4
    Until: 16:00,0.4060,      !- Field 5
    Until: 22:00,0.9219,      !- Field 6
    Until: 24:00,0.4011,      !- Field 7
    For: Saturday Sunday Holiday AllOtherDays,    !- Field 8
    Until: 08:00,0.4053,      !- Field 9
    Until: 23:00,0.8798,      !- Field 10
    Until: 24:00,0.5300;      !- Field 11

SCHEDULE:COMPACT,
    InfilSched_Twoandahalfstory_House,    !- Name
    Fraction,                 !- Schedule Type Limits Name
    Through: 12/31,           !- Field 1
    For: Weekdays SummerDesignDay WinterDesignDay,    !- Field 2
    Until: 24:00,0.9545,      !- Field 3
    For: Saturday Sunday Holiday AllOtherDays,    !- Field 4
    Until: 24:00,0.9220;      !- Field 5

SCHEDULE:CONSTANT,
    AlwaysOnSched,            !- Name
    Fraction,                 !- Schedule Type Limits Name
    1;                        !- Hourly Value

MATERIAL,
    Concrete_200mm,           !- Name
    MediumRough,              !- Roughness
    1.952980e-01,             !- Thickness
    0.0781191888777523,       !- Conductivity
    2300.535528810336,        !- Density
    852.6535969683864,        !- Specific Heat
    0.9,                      !- Thermal Absorptance
    0.7,                      !- Solar Absorptance
    0.7;                      !- Visible Absorptance

MATERIAL:NOMASS,
    Roof_R2.5,                !- Name
    MediumRough,              !- Roughness
    2.5,                      !- Thermal Resistance
    0.9026979198800315,       !- Thermal Absorptance
    0.700629180728445,        !- Solar Absorptance
    0.6960861687085697;       !- Visible Absorptance

MATERIAL:NOMASS,
    InternalFloor_Generic_R1.0,    !- Name
    MediumSmooth,             !- Roughness
    1,                        !- Thermal Resistance
    0.9055697482202009,       !- Thermal Absorptance
    0.6930909826354928,       !- Solar Absorptance
    0.7042814695256593;       !- Visible Absorptance

MATERIAL:NOMASS,
    InteriorWall_Generic_R0.5,    !- Name
    MediumSmooth,             !- Roughness
    0.5,                      !- Thermal Resistance
    0.8971245092973239,       !- Thermal Absorptance
    4.965548e-01,             !- Solar Absorptance
    0.5045721307220679;       !- Visible Absorptance

MATERIAL:NOMASS,
    GroundFloor_R2.5,         !- Name
    MediumRough,              !- Roughness
    0.3448275862068966,       !- Thermal Resistance
    0.8926694251808427,       !- Thermal Absorptance
    0.6943540292756685,       !- Solar Absorptance
    0.7048649211288645;       !- Visible Absorptance

MATERIAL:NOMASS,
    Door_U3.4,                !- Name
    MediumRough,              !- Roughness
    0.29,                     !- Thermal Resistance
    0.9041351721604888,       !- Thermal Absorptance
    0.7005071932803658,       !- Solar Absorptance
    0.7066236206957112;       !- Visible Absorptance

WINDOWMATERIAL:SIMPLEGLAZINGSYSTEM,
    Window_U2.9,              !- Name
    2.9,                      !- UFactor
    0.7014521644391364,       !- Solar Heat Gain Coefficient
    0.7;                      !- Visible Transmittance

WINDOWMATERIAL:BLIND,
    MyExternalLouvers_Zone1_FrontPerimeter_Wall_0_window,    !- Name
    Horizontal,               !- Slat Orientation
    0.025,                    !- Slat Width
    0.02,                     !- Slat Separation
    0.001,                    !- Slat Thickness
    45,                       !- Slat Angle
    160,                      !- Slat Conductivity
    0,                        !- Slat Beam Solar Transmittance
    0.7,                      !- Front Side Slat Beam Solar Reflectance
    0.7,                      !- Back Side Slat Beam Solar Reflectance
    0,                        !- Slat Diffuse Solar Transmittance
    0.7,                      !- Front Side Slat Diffuse Solar Reflectance
    0.7,                      !- Back Side Slat Diffuse Solar Reflectance
    0,                        !- Slat Beam Visible Transmittance
    0.7,                      !- Front Side Slat Beam Visible Reflectance
    0.7,                      !- Back Side Slat Beam Visible Reflectance
    0,                        !- Slat Diffuse Visible Transmittance
    0.7,                      !- Front Side Slat Diffuse Visible Reflectance
    0.7,                      !- Back Side Slat Diffuse Visible Reflectance
    0,                        !- Slat Infrared Hemispherical Transmittance
    0.9,                      !- Front Side Slat Infrared Hemispherical Emissivity
    0.9,                      !- Back Side Slat Infrared Hemispherical Emissivity
    0.05,                     !- Blind to Glass Distance
    0.5,                      !- Blind Top Opening Multiplier
    0,                        !- Blind Bottom Opening Multiplier
    0.5,                      !- Blind Left Side Opening Multiplier
    0.5,                      !- Blind Right Side Opening Multiplier
    0,                        !- Minimum Slat Angle
    180;                      !- Maximum Slat Angle

WINDOWMATERIAL:BLIND,
    MyExternalLouvers_Zone1_RearPerimeter_Wall_0_window,    !- Name
    Horizontal,               !- Slat Orientation
    0.025,                    !- Slat Width
    0.02,                     !- Slat Separation
    0.001,                    !- Slat Thickness
    45,                       !- Slat Angle
    160,                      !- Slat Conductivity
    0,                        !- Slat Beam Solar Transmittance
    0.7,                      !- Front Side Slat Beam Solar Reflectance
    0.7,                      !- Back Side Slat Beam Solar Reflectance
    0,                        !- Slat Diffuse Solar Transmittance
    0.7,                      !- Front Side Slat Diffuse Solar Reflectance
    0.7,                      !- Back Side Slat Diffuse Solar Reflectance
    0,                        !- Slat Beam Visible Transmittance
    0.7,                      !- Front Side Slat Beam Visible Reflectance
    0.7,                      !- Back Side Slat Beam Visible Reflectance
    0,                        !- Slat Diffuse Visible Transmittance
    0.7,                      !- Front Side Slat Diffuse Visible Reflectance
    0.7,                      !- Back Side Slat Diffuse Visible Reflectance
    0,                        !- Slat Infrared Hemispherical Transmittance
    0.9,                      !- Front Side Slat Infrared Hemispherical Emissivity
    0.9,                      !- Back Side Slat Infrared Hemispherical Emissivity
    0.05,                     !- Blind to Glass Distance
    0.5,                      !- Blind Top Opening Multiplier
    0,                        !- Blind Bottom Opening Multiplier
    0.5,                      !- Blind Left Side Opening Multiplier
    0.5,                      !- Blind Right Side Opening Multiplier
    0,                        !- Minimum Slat Angle
    180;                      !- Maximum Slat Angle

WINDOWMATERIAL:BLIND,
    MyExternalLouvers_Zone1_LeftPerimeter_Wall_0_window,    !- Name
    Horizontal,               !- Slat Orientation
    0.025,                    !- Slat Width
    0.02,                     !- Slat Separation
    0.001,                    !- Slat Thickness
    45,                       !- Slat Angle
    160,                      !- Slat Conductivity
    0,                        !- Slat Beam Solar Transmittance
    0.7,                      !- Front Side Slat Beam Solar Reflectance
    0.7,                      !- Back Side Slat Beam Solar Reflectance
    0,                        !- Slat Diffuse Solar Transmittance
    0.7,                      !- Front Side Slat Diffuse Solar Reflectance
    0.7,                      !- Back Side Slat Diffuse Solar Reflectance
    0,                        !- Slat Beam Visible Transmittance
    0.7,                      !- Front Side Slat Beam Visible Reflectance
    0.7,                      !- Back Side Slat Beam Visible Reflectance
    0,                        !- Slat Diffuse Visible Transmittance
    0.7,                      !- Front Side Slat Diffuse Visible Reflectance
    0.7,                      !- Back Side Slat Diffuse Visible Reflectance
    0,                        !- Slat Infrared Hemispherical Transmittance
    0.9,                      !- Front Side Slat Infrared Hemispherical Emissivity
    0.9,                      !- Back Side Slat Infrared Hemispherical Emissivity
    0.05,                     !- Blind to Glass Distance
    0.5,                      !- Blind Top Opening Multiplier
    0,                        !- Blind Bottom Opening Multiplier
    0.5,                      !- Blind Left Side Opening Multiplier
    0.5,                      !- Blind Right Side Opening Multiplier
    0,                        !- Minimum Slat Angle
    180;                      !- Maximum Slat Angle

WINDOWMATERIAL:BLIND,
    MyExternalLouvers_Zone2_FrontPerimeter_Wall_0_window,    !- Name
    Horizontal,               !- Slat Orientation
    0.025,                    !- Slat Width
    0.02,                     !- Slat Separation
    0.001,                    !- Slat Thickness
    45,                       !- Slat Angle
    160,                      !- Slat Conductivity
    0,                        !- Slat Beam Solar Transmittance
    0.7,                      !- Front Side Slat Beam Solar Reflectance
    0.7,                      !- Back Side Slat Beam Solar Reflectance
    0,                        !- Slat Diffuse Solar Transmittance
    0.7,                      !- Front Side Slat Diffuse Solar Reflectance
    0.7,                      !- Back Side Slat Diffuse Solar Reflectance
    0,                        !- Slat Beam Visible Transmittance
    0.7,                      !- Front Side Slat Beam Visible Reflectance
    0.7,                      !- Back Side Slat Beam Visible Reflectance
    0,                        !- Slat Diffuse Visible Transmittance
    0.7,                      !- Front Side Slat Diffuse Visible Reflectance
    0.7,                      !- Back Side Slat Diffuse Visible Reflectance
    0,                        !- Slat Infrared Hemispherical Transmittance
    0.9,                      !- Front Side Slat Infrared Hemispherical Emissivity
    0.9,                      !- Back Side Slat Infrared Hemispherical Emissivity
    0.05,                     !- Blind to Glass Distance
    0.5,                      !- Blind Top Opening Multiplier
    0,                        !- Blind Bottom Opening Multiplier
    0.5,                      !- Blind Left Side Opening Multiplier
    0.5,                      !- Blind Right Side Opening Multiplier
    0,                        !- Minimum Slat Angle
    180;                      !- Maximum Slat Angle

WINDOWMATERIAL:BLIND,
    MyExternalLouvers_Zone2_RearPerimeter_Wall_0_window,    !- Name
    Horizontal,               !- Slat Orientation
    0.025,                    !- Slat Width
    0.02,                     !- Slat Separation
    0.001,                    !- Slat Thickness
    45,                       !- Slat Angle
    160,                      !- Slat Conductivity
    0,                        !- Slat Beam Solar Transmittance
    0.7,                      !- Front Side Slat Beam Solar Reflectance
    0.7,                      !- Back Side Slat Beam Solar Reflectance
    0,                        !- Slat Diffuse Solar Transmittance
    0.7,                      !- Front Side Slat Diffuse Solar Reflectance
    0.7,                      !- Back Side Slat Diffuse Solar Reflectance
    0,                        !- Slat Beam Visible Transmittance
    0.7,                      !- Front Side Slat Beam Visible Reflectance
    0.7,                      !- Back Side Slat Beam Visible Reflectance
    0,                        !- Slat Diffuse Visible Transmittance
    0.7,                      !- Front Side Slat Diffuse Visible Reflectance
    0.7,                      !- Back Side Slat Diffuse Visible Reflectance
    0,                        !- Slat Infrared Hemispherical Transmittance
    0.9,                      !- Front Side Slat Infrared Hemispherical Emissivity
    0.9,                      !- Back Side Slat Infrared Hemispherical Emissivity
    0.05,                     !- Blind to Glass Distance
    0.5,                      !- Blind Top Opening Multiplier
    0,                        !- Blind Bottom Opening Multiplier
    0.5,                      !- Blind Left Side Opening Multiplier
    0.5,                      !- Blind Right Side Opening Multiplier
    0,                        !- Minimum Slat Angle
    180;                      !- Maximum Slat Angle

WINDOWMATERIAL:BLIND,
    MyExternalLouvers_Zone2_LeftPerimeter_Wall_0_window,    !- Name
    Horizontal,               !- Slat Orientation
    0.025,                    !- Slat Width
    0.02,                     !- Slat Separation
    0.001,                    !- Slat Thickness
    45,                       !- Slat Angle
    160,                      !- Slat Conductivity
    0,                        !- Slat Beam Solar Transmittance
    0.7,                      !- Front Side Slat Beam Solar Reflectance
    0.7,                      !- Back Side Slat Beam Solar Reflectance
    0,                        !- Slat Diffuse Solar Transmittance
    0.7,                      !- Front Side Slat Diffuse Solar Reflectance
    0.7,                      !- Back Side Slat Diffuse Solar Reflectance
    0,                        !- Slat Beam Visible Transmittance
    0.7,                      !- Front Side Slat Beam Visible Reflectance
    0.7,                      !- Back Side Slat Beam Visible Reflectance
    0,                        !- Slat Diffuse Visible Transmittance
    0.7,                      !- Front Side Slat Diffuse Visible Reflectance
    0.7,                      !- Back Side Slat Diffuse Visible Reflectance
    0,                        !- Slat Infrared Hemispherical Transmittance
    0.9,                      !- Front Side Slat Infrared Hemispherical Emissivity
    0.9,                      !- Back Side Slat Infrared Hemispherical Emissivity
    0.05,                     !- Blind to Glass Distance
    0.5,                      !- Blind Top Opening Multiplier
    0,                        !- Blind Bottom Opening Multiplier
    0.5,                      !- Blind Left Side Opening Multiplier
    0.5,                      !- Blind Right Side Opening Multiplier
    0,                        !- Minimum Slat Angle
    180;                      !- Maximum Slat Angle

CONSTRUCTION,
    CEILING1C,                !- Name
    Roof_R2.5;                !- Outside Layer

CONSTRUCTION,
    Ext_Walls1C,              !- Name
    Concrete_200mm;           !- Outside Layer

CONSTRUCTION,
    Int_Walls1C,              !- Name
    InteriorWall_Generic_R0.5;    !- Outside Layer

CONSTRUCTION,
    Roof1C,                   !- Name
    Roof_R2.5;                !- Outside Layer

CONSTRUCTION,
    GroundFloor1C,            !- Name
    GroundFloor_R2.5;         !- Outside Layer

CONSTRUCTION,
    IntFloor1C,               !- Name
    InternalFloor_Generic_R1.0;    !- Outside Layer

CONSTRUCTION,
    Window1C,                 !- Name
    Window_U2.9;              !- Outside Layer

CONSTRUCTION,
    ground_floor_Construction,    !- Name
    GroundFloor_R2.5;         !- Outside Layer

CONSTRUCTION,
    exterior_wall_Construction,    !- Name
    Concrete_200mm;           !- Outside Layer

CONSTRUCTION,
    flat_roof_Construction,    !- Name
    Roof_R2.5;                !- Outside Layer

CONSTRUCTION,
    inter_floor_Construction,    !- Name
    InternalFloor_Generic_R1.0;    !- Outside Layer

CONSTRUCTION,
    interior_wall_Construction,    !- Name
    InteriorWall_Generic_R0.5;    !- Outside Layer

CONSTRUCTION,
    windows_Construction,     !- Name
    GroundFloor_R2.5;         !- Outside Layer

CONSTRUCTION,
    windows_WindowConst,      !- Name
    Window_U2.9;              !- Outside Layer

CONSTRUCTION,
    doors_Construction,       !- Name
    Door_U3.4;                !- Outside Layer

GlobalGeometryRules,
    UpperLeftCorner,          !- Starting Vertex Position
    CounterClockWise,         !- Vertex Entry Direction
    Relative;                 !- Coordinate System

ZONE,
    Zone1_FrontPerimeter,     !- Name
    0,                        !- Direction of Relative North
    0,                        !- X Origin
    0,                        !- Y Origin
    0,                        !- Z Origin
    1,                        !- Type
    1,                        !- Multiplier
    autocalculate,            !- Ceiling Height
    autocalculate,            !- Volume
    autocalculate,            !- Floor Area
    ,                         !- Zone Inside Convection Algorithm
    ,                         !- Zone Outside Convection Algorithm
    Yes;                      !- Part of Total Floor Area

ZONE,
    Zone1_RightPerimeter,     !- Name
    0,                        !- Direction of Relative North
    0,                        !- X Origin
    0,                        !- Y Origin
    0,                        !- Z Origin
    1,                        !- Type